
---------- Begin Simulation Statistics ----------
final_tick                                80866013500                       # Number of ticks from beginning of simulation (restored from checkpoints and never reset)
host_inst_rate                                 431688                       # Simulator instruction rate (inst/s)
host_mem_usage                                 677020                       # Number of bytes of host memory used
host_op_rate                                   432536                       # Simulator op (including micro ops) rate (op/s)
host_seconds                                   231.65                       # Real time elapsed on the host
host_tick_rate                              349088771                       # Simulator tick rate (ticks/s)
sim_freq                                 1000000000000                       # Frequency of simulated ticks
sim_insts                                   100000001                       # Number of instructions simulated
sim_ops                                     100196356                       # Number of ops (including micro ops) simulated
sim_seconds                                  0.080866                       # Number of seconds simulated
sim_ticks                                 80866013500                       # Number of ticks simulated
system.cpu.committedInsts                   100000001                       # Number of instructions committed
system.cpu.committedOps                     100196356                       # Number of ops (including micro ops) committed
system.cpu.cpi                               1.617320                       # CPI: cycles per instruction
system.cpu.discardedOps                        189345                       # Number of ops (including micro ops) which were discarded before commit
system.cpu.idleCycles                        29223920                       # Total number of cycles that the object has spent stopped
system.cpu.ipc                               0.618307                       # IPC: instructions per cycle
system.cpu.numCycles                        161732027                       # number of cpu cycles simulated
system.cpu.numFetchSuspends                         0                       # Number of times Execute suspended instruction fetching
system.cpu.numWorkItemsCompleted                    0                       # number of work items this cpu completed
system.cpu.numWorkItemsStarted                      0                       # number of work items this cpu started
system.cpu.op_class_0::No_OpClass                   0      0.00%      0.00% # Class of committed instruction
system.cpu.op_class_0::IntAlu                46526863     46.44%     46.44% # Class of committed instruction
system.cpu.op_class_0::IntMult                  20723      0.02%     46.46% # Class of committed instruction
system.cpu.op_class_0::IntDiv                       0      0.00%     46.46% # Class of committed instruction
system.cpu.op_class_0::FloatAdd                     0      0.00%     46.46% # Class of committed instruction
system.cpu.op_class_0::FloatCmp                     0      0.00%     46.46% # Class of committed instruction
system.cpu.op_class_0::FloatCvt                     0      0.00%     46.46% # Class of committed instruction
system.cpu.op_class_0::FloatMult                    0      0.00%     46.46% # Class of committed instruction
system.cpu.op_class_0::FloatMultAcc                 0      0.00%     46.46% # Class of committed instruction
system.cpu.op_class_0::FloatDiv                     0      0.00%     46.46% # Class of committed instruction
system.cpu.op_class_0::FloatMisc                    0      0.00%     46.46% # Class of committed instruction
system.cpu.op_class_0::FloatSqrt                    0      0.00%     46.46% # Class of committed instruction
system.cpu.op_class_0::SimdAdd                      0      0.00%     46.46% # Class of committed instruction
system.cpu.op_class_0::SimdAddAcc                   0      0.00%     46.46% # Class of committed instruction
system.cpu.op_class_0::SimdAlu                      0      0.00%     46.46% # Class of committed instruction
system.cpu.op_class_0::SimdCmp                      0      0.00%     46.46% # Class of committed instruction
system.cpu.op_class_0::SimdCvt                      0      0.00%     46.46% # Class of committed instruction
system.cpu.op_class_0::SimdMisc                     0      0.00%     46.46% # Class of committed instruction
system.cpu.op_class_0::SimdMult                     0      0.00%     46.46% # Class of committed instruction
system.cpu.op_class_0::SimdMultAcc                  0      0.00%     46.46% # Class of committed instruction
system.cpu.op_class_0::SimdShift                    0      0.00%     46.46% # Class of committed instruction
system.cpu.op_class_0::SimdShiftAcc                 0      0.00%     46.46% # Class of committed instruction
system.cpu.op_class_0::SimdDiv                      0      0.00%     46.46% # Class of committed instruction
system.cpu.op_class_0::SimdSqrt                     0      0.00%     46.46% # Class of committed instruction
system.cpu.op_class_0::SimdFloatAdd                 0      0.00%     46.46% # Class of committed instruction
system.cpu.op_class_0::SimdFloatAlu                 0      0.00%     46.46% # Class of committed instruction
system.cpu.op_class_0::SimdFloatCmp                 0      0.00%     46.46% # Class of committed instruction
system.cpu.op_class_0::SimdFloatCvt                 0      0.00%     46.46% # Class of committed instruction
system.cpu.op_class_0::SimdFloatDiv                 0      0.00%     46.46% # Class of committed instruction
system.cpu.op_class_0::SimdFloatMisc               18      0.00%     46.46% # Class of committed instruction
system.cpu.op_class_0::SimdFloatMult                0      0.00%     46.46% # Class of committed instruction
system.cpu.op_class_0::SimdFloatMultAcc             0      0.00%     46.46% # Class of committed instruction
system.cpu.op_class_0::SimdFloatSqrt                0      0.00%     46.46% # Class of committed instruction
system.cpu.op_class_0::SimdReduceAdd                0      0.00%     46.46% # Class of committed instruction
system.cpu.op_class_0::SimdReduceAlu                0      0.00%     46.46% # Class of committed instruction
system.cpu.op_class_0::SimdReduceCmp                0      0.00%     46.46% # Class of committed instruction
system.cpu.op_class_0::SimdFloatReduceAdd            0      0.00%     46.46% # Class of committed instruction
system.cpu.op_class_0::SimdFloatReduceCmp            0      0.00%     46.46% # Class of committed instruction
system.cpu.op_class_0::SimdAes                      0      0.00%     46.46% # Class of committed instruction
system.cpu.op_class_0::SimdAesMix                   0      0.00%     46.46% # Class of committed instruction
system.cpu.op_class_0::SimdSha1Hash                 0      0.00%     46.46% # Class of committed instruction
system.cpu.op_class_0::SimdSha1Hash2                0      0.00%     46.46% # Class of committed instruction
system.cpu.op_class_0::SimdSha256Hash               0      0.00%     46.46% # Class of committed instruction
system.cpu.op_class_0::SimdSha256Hash2              0      0.00%     46.46% # Class of committed instruction
system.cpu.op_class_0::SimdShaSigma2                0      0.00%     46.46% # Class of committed instruction
system.cpu.op_class_0::SimdShaSigma3                0      0.00%     46.46% # Class of committed instruction
system.cpu.op_class_0::SimdPredAlu                  0      0.00%     46.46% # Class of committed instruction
system.cpu.op_class_0::MemRead               42690537     42.61%     89.06% # Class of committed instruction
system.cpu.op_class_0::MemWrite              10958215     10.94%    100.00% # Class of committed instruction
system.cpu.op_class_0::FloatMemRead                 0      0.00%    100.00% # Class of committed instruction
system.cpu.op_class_0::FloatMemWrite                0      0.00%    100.00% # Class of committed instruction
system.cpu.op_class_0::IprAccess                    0      0.00%    100.00% # Class of committed instruction
system.cpu.op_class_0::InstPrefetch                 0      0.00%    100.00% # Class of committed instruction
system.cpu.op_class_0::total                100196356                       # Class of committed instruction
system.cpu.tickCycles                       132508107                       # Number of cycles that the object actually ticked
system.cpu.workload.numSyscalls                    85                       # Number of system calls
system.membus.snoop_filter.hit_multi_requests            0                       # Number of requests hitting in the snoop filter with multiple (>1) holders of the requested data.
system.membus.snoop_filter.hit_multi_snoops            0                       # Number of snoops hitting in the snoop filter with multiple (>1) holders of the requested data.
system.membus.snoop_filter.hit_single_requests       114811                       # Number of requests hitting in the snoop filter with a single holder of the requested data.
system.membus.snoop_filter.hit_single_snoops            0                       # Number of snoops hitting in the snoop filter with a single holder of the requested data.
system.membus.snoop_filter.tot_requests        295476                       # Total number of requests made to the snoop filter.
system.membus.snoop_filter.tot_snoops               0                       # Total number of snoops made to the snoop filter.
system.tol2bus.snoop_filter.hit_multi_requests           63                       # Number of requests hitting in the snoop filter with multiple (>1) holders of the requested data.
system.tol2bus.snoop_filter.hit_multi_snoops            0                       # Number of snoops hitting in the snoop filter with multiple (>1) holders of the requested data.
system.tol2bus.snoop_filter.hit_single_requests       525068                       # Number of requests hitting in the snoop filter with a single holder of the requested data.
system.tol2bus.snoop_filter.hit_single_snoops          457                       # Number of snoops hitting in the snoop filter with a single holder of the requested data.
system.tol2bus.snoop_filter.tot_requests      1052620                       # Total number of requests made to the snoop filter.
system.tol2bus.snoop_filter.tot_snoops            457                       # Total number of snoops made to the snoop filter.
system.clk_domain.clock                          1000                       # Clock period in ticks
system.cpu.branchPred.lookups                 4485878                       # Number of BP lookups
system.cpu.branchPred.condPredicted           3735574                       # Number of conditional branches predicted
system.cpu.branchPred.condIncorrect             81005                       # Number of conditional branches incorrect
system.cpu.branchPred.BTBLookups              2103796                       # Number of BTB lookups
system.cpu.branchPred.BTBHits                 2101794                       # Number of BTB hits
system.cpu.branchPred.BTBHitPct             99.904839                       # BTB Hit Percentage
system.cpu.branchPred.RASUsed                   65379                       # Number of times the RAS was used to get a target.
system.cpu.branchPred.RASIncorrect                 14                       # Number of incorrect RAS predictions.
system.cpu.branchPred.indirectLookups             692                       # Number of indirect predictor lookups.
system.cpu.branchPred.indirectHits                288                       # Number of indirect target hits.
system.cpu.branchPred.indirectMisses              404                       # Number of indirect misses.
system.cpu.branchPred.indirectMispredicted          171                       # Number of mispredicted indirect branches.
system.cpu.dcache.demand_hits::.cpu.data     51487220                       # number of demand (read+write) hits
system.cpu.dcache.demand_hits::total         51487220                       # number of demand (read+write) hits
system.cpu.dcache.overall_hits::.cpu.data     51487730                       # number of overall hits
system.cpu.dcache.overall_hits::total        51487730                       # number of overall hits
system.cpu.dcache.demand_misses::.cpu.data       581354                       # number of demand (read+write) misses
system.cpu.dcache.demand_misses::total         581354                       # number of demand (read+write) misses
system.cpu.dcache.overall_misses::.cpu.data       589263                       # number of overall misses
system.cpu.dcache.overall_misses::total        589263                       # number of overall misses
system.cpu.dcache.demand_miss_latency::.cpu.data  20655849000                       # number of demand (read+write) miss cycles
system.cpu.dcache.demand_miss_latency::total  20655849000                       # number of demand (read+write) miss cycles
system.cpu.dcache.overall_miss_latency::.cpu.data  20655849000                       # number of overall miss cycles
system.cpu.dcache.overall_miss_latency::total  20655849000                       # number of overall miss cycles
system.cpu.dcache.demand_accesses::.cpu.data     52068574                       # number of demand (read+write) accesses
system.cpu.dcache.demand_accesses::total     52068574                       # number of demand (read+write) accesses
system.cpu.dcache.overall_accesses::.cpu.data     52076993                       # number of overall (read+write) accesses
system.cpu.dcache.overall_accesses::total     52076993                       # number of overall (read+write) accesses
system.cpu.dcache.demand_miss_rate::.cpu.data     0.011165                       # miss rate for demand accesses
system.cpu.dcache.demand_miss_rate::total     0.011165                       # miss rate for demand accesses
system.cpu.dcache.overall_miss_rate::.cpu.data     0.011315                       # miss rate for overall accesses
system.cpu.dcache.overall_miss_rate::total     0.011315                       # miss rate for overall accesses
system.cpu.dcache.demand_avg_miss_latency::.cpu.data 35530.587215                       # average overall miss latency
system.cpu.dcache.demand_avg_miss_latency::total 35530.587215                       # average overall miss latency
system.cpu.dcache.overall_avg_miss_latency::.cpu.data 35053.700979                       # average overall miss latency
system.cpu.dcache.overall_avg_miss_latency::total 35053.700979                       # average overall miss latency
system.cpu.dcache.blocked_cycles::no_mshrs       196512                       # number of cycles access was blocked
system.cpu.dcache.blocked_cycles::no_targets            0                       # number of cycles access was blocked
system.cpu.dcache.blocked::no_mshrs              3361                       # number of cycles access was blocked
system.cpu.dcache.blocked::no_targets               0                       # number of cycles access was blocked
system.cpu.dcache.avg_blocked_cycles::no_mshrs    58.468313                       # average number of cycles each access was blocked
system.cpu.dcache.avg_blocked_cycles::no_targets          nan                       # average number of cycles each access was blocked
system.cpu.dcache.writebacks::.writebacks       469881                       # number of writebacks
system.cpu.dcache.writebacks::total            469881                       # number of writebacks
system.cpu.dcache.demand_mshr_hits::.cpu.data        62478                       # number of demand (read+write) MSHR hits
system.cpu.dcache.demand_mshr_hits::total        62478                       # number of demand (read+write) MSHR hits
system.cpu.dcache.overall_mshr_hits::.cpu.data        62478                       # number of overall MSHR hits
system.cpu.dcache.overall_mshr_hits::total        62478                       # number of overall MSHR hits
system.cpu.dcache.demand_mshr_misses::.cpu.data       518876                       # number of demand (read+write) MSHR misses
system.cpu.dcache.demand_mshr_misses::total       518876                       # number of demand (read+write) MSHR misses
system.cpu.dcache.overall_mshr_misses::.cpu.data       526781                       # number of overall MSHR misses
system.cpu.dcache.overall_mshr_misses::total       526781                       # number of overall MSHR misses
system.cpu.dcache.demand_mshr_miss_latency::.cpu.data  18579461500                       # number of demand (read+write) MSHR miss cycles
system.cpu.dcache.demand_mshr_miss_latency::total  18579461500                       # number of demand (read+write) MSHR miss cycles
system.cpu.dcache.overall_mshr_miss_latency::.cpu.data  19244326999                       # number of overall MSHR miss cycles
system.cpu.dcache.overall_mshr_miss_latency::total  19244326999                       # number of overall MSHR miss cycles
system.cpu.dcache.demand_mshr_miss_rate::.cpu.data     0.009965                       # mshr miss rate for demand accesses
system.cpu.dcache.demand_mshr_miss_rate::total     0.009965                       # mshr miss rate for demand accesses
system.cpu.dcache.overall_mshr_miss_rate::.cpu.data     0.010115                       # mshr miss rate for overall accesses
system.cpu.dcache.overall_mshr_miss_rate::total     0.010115                       # mshr miss rate for overall accesses
system.cpu.dcache.demand_avg_mshr_miss_latency::.cpu.data 35807.132147                       # average overall mshr miss latency
system.cpu.dcache.demand_avg_mshr_miss_latency::total 35807.132147                       # average overall mshr miss latency
system.cpu.dcache.overall_avg_mshr_miss_latency::.cpu.data 36531.930725                       # average overall mshr miss latency
system.cpu.dcache.overall_avg_mshr_miss_latency::total 36531.930725                       # average overall mshr miss latency
system.cpu.dcache.replacements                 524733                       # number of replacements
system.cpu.dcache.ReadReq_hits::.cpu.data     40843433                       # number of ReadReq hits
system.cpu.dcache.ReadReq_hits::total        40843433                       # number of ReadReq hits
system.cpu.dcache.ReadReq_misses::.cpu.data       276059                       # number of ReadReq misses
system.cpu.dcache.ReadReq_misses::total        276059                       # number of ReadReq misses
system.cpu.dcache.ReadReq_miss_latency::.cpu.data   6514951500                       # number of ReadReq miss cycles
system.cpu.dcache.ReadReq_miss_latency::total   6514951500                       # number of ReadReq miss cycles
system.cpu.dcache.ReadReq_accesses::.cpu.data     41119492                       # number of ReadReq accesses(hits+misses)
system.cpu.dcache.ReadReq_accesses::total     41119492                       # number of ReadReq accesses(hits+misses)
system.cpu.dcache.ReadReq_miss_rate::.cpu.data     0.006714                       # miss rate for ReadReq accesses
system.cpu.dcache.ReadReq_miss_rate::total     0.006714                       # miss rate for ReadReq accesses
system.cpu.dcache.ReadReq_avg_miss_latency::.cpu.data 23599.851843                       # average ReadReq miss latency
system.cpu.dcache.ReadReq_avg_miss_latency::total 23599.851843                       # average ReadReq miss latency
system.cpu.dcache.ReadReq_mshr_hits::.cpu.data          681                       # number of ReadReq MSHR hits
system.cpu.dcache.ReadReq_mshr_hits::total          681                       # number of ReadReq MSHR hits
system.cpu.dcache.ReadReq_mshr_misses::.cpu.data       275378                       # number of ReadReq MSHR misses
system.cpu.dcache.ReadReq_mshr_misses::total       275378                       # number of ReadReq MSHR misses
system.cpu.dcache.ReadReq_mshr_miss_latency::.cpu.data   6211425000                       # number of ReadReq MSHR miss cycles
system.cpu.dcache.ReadReq_mshr_miss_latency::total   6211425000                       # number of ReadReq MSHR miss cycles
system.cpu.dcache.ReadReq_mshr_miss_rate::.cpu.data     0.006697                       # mshr miss rate for ReadReq accesses
system.cpu.dcache.ReadReq_mshr_miss_rate::total     0.006697                       # mshr miss rate for ReadReq accesses
system.cpu.dcache.ReadReq_avg_mshr_miss_latency::.cpu.data 22555.995759                       # average ReadReq mshr miss latency
system.cpu.dcache.ReadReq_avg_mshr_miss_latency::total 22555.995759                       # average ReadReq mshr miss latency
system.cpu.dcache.WriteReq_hits::.cpu.data     10643787                       # number of WriteReq hits
system.cpu.dcache.WriteReq_hits::total       10643787                       # number of WriteReq hits
system.cpu.dcache.WriteReq_misses::.cpu.data       305295                       # number of WriteReq misses
system.cpu.dcache.WriteReq_misses::total       305295                       # number of WriteReq misses
system.cpu.dcache.WriteReq_miss_latency::.cpu.data  14140897500                       # number of WriteReq miss cycles
system.cpu.dcache.WriteReq_miss_latency::total  14140897500                       # number of WriteReq miss cycles
system.cpu.dcache.WriteReq_accesses::.cpu.data     10949082                       # number of WriteReq accesses(hits+misses)
system.cpu.dcache.WriteReq_accesses::total     10949082                       # number of WriteReq accesses(hits+misses)
system.cpu.dcache.WriteReq_miss_rate::.cpu.data     0.027883                       # miss rate for WriteReq accesses
system.cpu.dcache.WriteReq_miss_rate::total     0.027883                       # miss rate for WriteReq accesses
system.cpu.dcache.WriteReq_avg_miss_latency::.cpu.data 46318.798212                       # average WriteReq miss latency
system.cpu.dcache.WriteReq_avg_miss_latency::total 46318.798212                       # average WriteReq miss latency
system.cpu.dcache.WriteReq_mshr_hits::.cpu.data        61797                       # number of WriteReq MSHR hits
system.cpu.dcache.WriteReq_mshr_hits::total        61797                       # number of WriteReq MSHR hits
system.cpu.dcache.WriteReq_mshr_misses::.cpu.data       243498                       # number of WriteReq MSHR misses
system.cpu.dcache.WriteReq_mshr_misses::total       243498                       # number of WriteReq MSHR misses
system.cpu.dcache.WriteReq_mshr_miss_latency::.cpu.data  12368036500                       # number of WriteReq MSHR miss cycles
system.cpu.dcache.WriteReq_mshr_miss_latency::total  12368036500                       # number of WriteReq MSHR miss cycles
system.cpu.dcache.WriteReq_mshr_miss_rate::.cpu.data     0.022239                       # mshr miss rate for WriteReq accesses
system.cpu.dcache.WriteReq_mshr_miss_rate::total     0.022239                       # mshr miss rate for WriteReq accesses
system.cpu.dcache.WriteReq_avg_mshr_miss_latency::.cpu.data 50793.174893                       # average WriteReq mshr miss latency
system.cpu.dcache.WriteReq_avg_mshr_miss_latency::total 50793.174893                       # average WriteReq mshr miss latency
system.cpu.dcache.SoftPFReq_hits::.cpu.data          510                       # number of SoftPFReq hits
system.cpu.dcache.SoftPFReq_hits::total           510                       # number of SoftPFReq hits
system.cpu.dcache.SoftPFReq_misses::.cpu.data         7909                       # number of SoftPFReq misses
system.cpu.dcache.SoftPFReq_misses::total         7909                       # number of SoftPFReq misses
system.cpu.dcache.SoftPFReq_accesses::.cpu.data         8419                       # number of SoftPFReq accesses(hits+misses)
system.cpu.dcache.SoftPFReq_accesses::total         8419                       # number of SoftPFReq accesses(hits+misses)
system.cpu.dcache.SoftPFReq_miss_rate::.cpu.data     0.939423                       # miss rate for SoftPFReq accesses
system.cpu.dcache.SoftPFReq_miss_rate::total     0.939423                       # miss rate for SoftPFReq accesses
system.cpu.dcache.SoftPFReq_mshr_misses::.cpu.data         7905                       # number of SoftPFReq MSHR misses
system.cpu.dcache.SoftPFReq_mshr_misses::total         7905                       # number of SoftPFReq MSHR misses
system.cpu.dcache.SoftPFReq_mshr_miss_latency::.cpu.data    664865499                       # number of SoftPFReq MSHR miss cycles
system.cpu.dcache.SoftPFReq_mshr_miss_latency::total    664865499                       # number of SoftPFReq MSHR miss cycles
system.cpu.dcache.SoftPFReq_mshr_miss_rate::.cpu.data     0.938948                       # mshr miss rate for SoftPFReq accesses
system.cpu.dcache.SoftPFReq_mshr_miss_rate::total     0.938948                       # mshr miss rate for SoftPFReq accesses
system.cpu.dcache.SoftPFReq_avg_mshr_miss_latency::.cpu.data 84106.957495                       # average SoftPFReq mshr miss latency
system.cpu.dcache.SoftPFReq_avg_mshr_miss_latency::total 84106.957495                       # average SoftPFReq mshr miss latency
system.cpu.dcache.LoadLockedReq_hits::.cpu.data           38                       # number of LoadLockedReq hits
system.cpu.dcache.LoadLockedReq_hits::total           38                       # number of LoadLockedReq hits
system.cpu.dcache.LoadLockedReq_accesses::.cpu.data           38                       # number of LoadLockedReq accesses(hits+misses)
system.cpu.dcache.LoadLockedReq_accesses::total           38                       # number of LoadLockedReq accesses(hits+misses)
system.cpu.dcache.StoreCondReq_hits::.cpu.data           38                       # number of StoreCondReq hits
system.cpu.dcache.StoreCondReq_hits::total           38                       # number of StoreCondReq hits
system.cpu.dcache.StoreCondReq_accesses::.cpu.data           38                       # number of StoreCondReq accesses(hits+misses)
system.cpu.dcache.StoreCondReq_accesses::total           38                       # number of StoreCondReq accesses(hits+misses)
system.cpu.dcache.power_state.pwrStateResidencyTicks::UNDEFINED  80866013500                       # Cumulative time (in ticks) in various power states
system.cpu.dcache.tags.tagsinuse          2011.380380                       # Cycle average of tags in use
system.cpu.dcache.tags.total_refs            52014587                       # Total number of references to valid blocks.
system.cpu.dcache.tags.sampled_refs            526781                       # Sample count of references to valid blocks.
system.cpu.dcache.tags.avg_refs             98.740439                       # Average number of references to valid blocks.
system.cpu.dcache.tags.warmup_cycle            176500                       # Cycle when the warmup percentage was hit.
system.cpu.dcache.tags.occ_blocks::.cpu.data  2011.380380                       # Average occupied blocks per requestor
system.cpu.dcache.tags.occ_percent::.cpu.data     0.982119                       # Average percentage of cache occupancy
system.cpu.dcache.tags.occ_percent::total     0.982119                       # Average percentage of cache occupancy
system.cpu.dcache.tags.occ_task_id_blocks::1024         2048                       # Occupied blocks per task id
system.cpu.dcache.tags.age_task_id_blocks_1024::0          153                       # Occupied blocks per task id
system.cpu.dcache.tags.age_task_id_blocks_1024::1          668                       # Occupied blocks per task id
system.cpu.dcache.tags.age_task_id_blocks_1024::2         1189                       # Occupied blocks per task id
system.cpu.dcache.tags.age_task_id_blocks_1024::3           37                       # Occupied blocks per task id
system.cpu.dcache.tags.age_task_id_blocks_1024::4            1                       # Occupied blocks per task id
system.cpu.dcache.tags.occ_task_id_percent::1024            1                       # Percentage of cache occupancy per task id
system.cpu.dcache.tags.tag_accesses         104680919                       # Number of tag accesses
system.cpu.dcache.tags.data_accesses        104680919                       # Number of data accesses
system.cpu.dcache.tags.power_state.pwrStateResidencyTicks::UNDEFINED  80866013500                       # Cumulative time (in ticks) in various power states
system.cpu.dtb.instHits                             0                       # ITB inst hits
system.cpu.dtb.instMisses                           0                       # ITB inst misses
system.cpu.dtb.readHits                             0                       # DTB read hits
system.cpu.dtb.readMisses                           0                       # DTB read misses
system.cpu.dtb.writeHits                            0                       # DTB write hits
system.cpu.dtb.writeMisses                          0                       # DTB write misses
system.cpu.dtb.inserts                              0                       # Number of times an entry is inserted into the TLB
system.cpu.dtb.flushTlb                             0                       # Number of times complete TLB was flushed
system.cpu.dtb.flushTlbMva                          0                       # Number of times TLB was flushed by MVA
system.cpu.dtb.flushTlbMvaAsid                      0                       # Number of times TLB was flushed by MVA & ASID
system.cpu.dtb.flushTlbAsid                         0                       # Number of times TLB was flushed by ASID
system.cpu.dtb.flushedEntries                       0                       # Number of entries that have been flushed from TLB
system.cpu.dtb.alignFaults                          0                       # Number of TLB faults due to alignment restrictions
system.cpu.dtb.prefetchFaults                       0                       # Number of TLB faults due to prefetch
system.cpu.dtb.domainFaults                         0                       # Number of TLB faults due to domain restrictions
system.cpu.dtb.permsFaults                          0                       # Number of TLB faults due to permissions restrictions
system.cpu.dtb.readAccesses                         0                       # DTB read accesses
system.cpu.dtb.writeAccesses                        0                       # DTB write accesses
system.cpu.dtb.instAccesses                         0                       # ITB inst accesses
system.cpu.dtb.hits                                 0                       # Total TLB (inst and data) hits
system.cpu.dtb.misses                               0                       # Total TLB (inst and data) misses
system.cpu.dtb.accesses                             0                       # Total TLB (inst and data) accesses
system.cpu.dtb.stage2_mmu.stage2_tlb.instHits            0                       # ITB inst hits
system.cpu.dtb.stage2_mmu.stage2_tlb.instMisses            0                       # ITB inst misses
system.cpu.dtb.stage2_mmu.stage2_tlb.readHits            0                       # DTB read hits
system.cpu.dtb.stage2_mmu.stage2_tlb.readMisses            0                       # DTB read misses
system.cpu.dtb.stage2_mmu.stage2_tlb.writeHits            0                       # DTB write hits
system.cpu.dtb.stage2_mmu.stage2_tlb.writeMisses            0                       # DTB write misses
system.cpu.dtb.stage2_mmu.stage2_tlb.inserts            0                       # Number of times an entry is inserted into the TLB
system.cpu.dtb.stage2_mmu.stage2_tlb.flushTlb            0                       # Number of times complete TLB was flushed
system.cpu.dtb.stage2_mmu.stage2_tlb.flushTlbMva            0                       # Number of times TLB was flushed by MVA
system.cpu.dtb.stage2_mmu.stage2_tlb.flushTlbMvaAsid            0                       # Number of times TLB was flushed by MVA & ASID
system.cpu.dtb.stage2_mmu.stage2_tlb.flushTlbAsid            0                       # Number of times TLB was flushed by ASID
system.cpu.dtb.stage2_mmu.stage2_tlb.flushedEntries            0                       # Number of entries that have been flushed from TLB
system.cpu.dtb.stage2_mmu.stage2_tlb.alignFaults            0                       # Number of TLB faults due to alignment restrictions
system.cpu.dtb.stage2_mmu.stage2_tlb.prefetchFaults            0                       # Number of TLB faults due to prefetch
system.cpu.dtb.stage2_mmu.stage2_tlb.domainFaults            0                       # Number of TLB faults due to domain restrictions
system.cpu.dtb.stage2_mmu.stage2_tlb.permsFaults            0                       # Number of TLB faults due to permissions restrictions
system.cpu.dtb.stage2_mmu.stage2_tlb.readAccesses            0                       # DTB read accesses
system.cpu.dtb.stage2_mmu.stage2_tlb.writeAccesses            0                       # DTB write accesses
system.cpu.dtb.stage2_mmu.stage2_tlb.instAccesses            0                       # ITB inst accesses
system.cpu.dtb.stage2_mmu.stage2_tlb.hits            0                       # Total TLB (inst and data) hits
system.cpu.dtb.stage2_mmu.stage2_tlb.misses            0                       # Total TLB (inst and data) misses
system.cpu.dtb.stage2_mmu.stage2_tlb.accesses            0                       # Total TLB (inst and data) accesses
system.cpu.dtb.stage2_mmu.stage2_tlb.walker.walks            0                       # Table walker walks requested
system.cpu.dtb.stage2_mmu.stage2_tlb.walker.requestOrigin_Requested::Data            0                       # Table walker requests started/completed, data/inst
system.cpu.dtb.stage2_mmu.stage2_tlb.walker.requestOrigin_Requested::Inst            0                       # Table walker requests started/completed, data/inst
system.cpu.dtb.stage2_mmu.stage2_tlb.walker.requestOrigin_Requested::total            0                       # Table walker requests started/completed, data/inst
system.cpu.dtb.stage2_mmu.stage2_tlb.walker.requestOrigin_Completed::Data            0                       # Table walker requests started/completed, data/inst
system.cpu.dtb.stage2_mmu.stage2_tlb.walker.requestOrigin_Completed::Inst            0                       # Table walker requests started/completed, data/inst
system.cpu.dtb.stage2_mmu.stage2_tlb.walker.requestOrigin_Completed::total            0                       # Table walker requests started/completed, data/inst
system.cpu.dtb.stage2_mmu.stage2_tlb.walker.requestOrigin::total            0                       # Table walker requests started/completed, data/inst
system.cpu.dtb.stage2_mmu.stage2_tlb.walker.power_state.pwrStateResidencyTicks::UNDEFINED  80866013500                       # Cumulative time (in ticks) in various power states
system.cpu.dtb.walker.walks                         0                       # Table walker walks requested
system.cpu.dtb.walker.requestOrigin_Requested::Data            0                       # Table walker requests started/completed, data/inst
system.cpu.dtb.walker.requestOrigin_Requested::Inst            0                       # Table walker requests started/completed, data/inst
system.cpu.dtb.walker.requestOrigin_Requested::total            0                       # Table walker requests started/completed, data/inst
system.cpu.dtb.walker.requestOrigin_Completed::Data            0                       # Table walker requests started/completed, data/inst
system.cpu.dtb.walker.requestOrigin_Completed::Inst            0                       # Table walker requests started/completed, data/inst
system.cpu.dtb.walker.requestOrigin_Completed::total            0                       # Table walker requests started/completed, data/inst
system.cpu.dtb.walker.requestOrigin::total            0                       # Table walker requests started/completed, data/inst
system.cpu.dtb.walker.power_state.pwrStateResidencyTicks::UNDEFINED  80866013500                       # Cumulative time (in ticks) in various power states
system.cpu.fetch2.intInstructions            42685693                       # Number of integer instructions successfully decoded
system.cpu.fetch2.fpInstructions                    0                       # Number of floating point instructions successfully decoded
system.cpu.fetch2.vecInstructions                   0                       # Number of SIMD instructions successfully decoded
system.cpu.fetch2.loadInstructions           43474840                       # Number of memory load instructions successfully decoded
system.cpu.fetch2.storeInstructions          11024770                       # Number of memory store instructions successfully decoded
system.cpu.fetch2.amoInstructions                   0                       # Number of memory atomic instructions successfully decoded
system.cpu.icache.demand_hits::.cpu.inst     10277647                       # number of demand (read+write) hits
system.cpu.icache.demand_hits::total         10277647                       # number of demand (read+write) hits
system.cpu.icache.overall_hits::.cpu.inst     10277647                       # number of overall hits
system.cpu.icache.overall_hits::total        10277647                       # number of overall hits
system.cpu.icache.demand_misses::.cpu.inst          773                       # number of demand (read+write) misses
system.cpu.icache.demand_misses::total            773                       # number of demand (read+write) misses
system.cpu.icache.overall_misses::.cpu.inst          773                       # number of overall misses
system.cpu.icache.overall_misses::total           773                       # number of overall misses
system.cpu.icache.demand_miss_latency::.cpu.inst     55310500                       # number of demand (read+write) miss cycles
system.cpu.icache.demand_miss_latency::total     55310500                       # number of demand (read+write) miss cycles
system.cpu.icache.overall_miss_latency::.cpu.inst     55310500                       # number of overall miss cycles
system.cpu.icache.overall_miss_latency::total     55310500                       # number of overall miss cycles
system.cpu.icache.demand_accesses::.cpu.inst     10278420                       # number of demand (read+write) accesses
system.cpu.icache.demand_accesses::total     10278420                       # number of demand (read+write) accesses
system.cpu.icache.overall_accesses::.cpu.inst     10278420                       # number of overall (read+write) accesses
system.cpu.icache.overall_accesses::total     10278420                       # number of overall (read+write) accesses
system.cpu.icache.demand_miss_rate::.cpu.inst     0.000075                       # miss rate for demand accesses
system.cpu.icache.demand_miss_rate::total     0.000075                       # miss rate for demand accesses
system.cpu.icache.overall_miss_rate::.cpu.inst     0.000075                       # miss rate for overall accesses
system.cpu.icache.overall_miss_rate::total     0.000075                       # miss rate for overall accesses
system.cpu.icache.demand_avg_miss_latency::.cpu.inst 71553.040103                       # average overall miss latency
system.cpu.icache.demand_avg_miss_latency::total 71553.040103                       # average overall miss latency
system.cpu.icache.overall_avg_miss_latency::.cpu.inst 71553.040103                       # average overall miss latency
system.cpu.icache.overall_avg_miss_latency::total 71553.040103                       # average overall miss latency
system.cpu.icache.blocked_cycles::no_mshrs            0                       # number of cycles access was blocked
system.cpu.icache.blocked_cycles::no_targets            0                       # number of cycles access was blocked
system.cpu.icache.blocked::no_mshrs                 0                       # number of cycles access was blocked
system.cpu.icache.blocked::no_targets               0                       # number of cycles access was blocked
system.cpu.icache.avg_blocked_cycles::no_mshrs          nan                       # average number of cycles each access was blocked
system.cpu.icache.avg_blocked_cycles::no_targets          nan                       # average number of cycles each access was blocked
system.cpu.icache.writebacks::.writebacks          333                       # number of writebacks
system.cpu.icache.writebacks::total               333                       # number of writebacks
system.cpu.icache.demand_mshr_misses::.cpu.inst          773                       # number of demand (read+write) MSHR misses
system.cpu.icache.demand_mshr_misses::total          773                       # number of demand (read+write) MSHR misses
system.cpu.icache.overall_mshr_misses::.cpu.inst          773                       # number of overall MSHR misses
system.cpu.icache.overall_mshr_misses::total          773                       # number of overall MSHR misses
system.cpu.icache.demand_mshr_miss_latency::.cpu.inst     54537500                       # number of demand (read+write) MSHR miss cycles
system.cpu.icache.demand_mshr_miss_latency::total     54537500                       # number of demand (read+write) MSHR miss cycles
system.cpu.icache.overall_mshr_miss_latency::.cpu.inst     54537500                       # number of overall MSHR miss cycles
system.cpu.icache.overall_mshr_miss_latency::total     54537500                       # number of overall MSHR miss cycles
system.cpu.icache.demand_mshr_miss_rate::.cpu.inst     0.000075                       # mshr miss rate for demand accesses
system.cpu.icache.demand_mshr_miss_rate::total     0.000075                       # mshr miss rate for demand accesses
system.cpu.icache.overall_mshr_miss_rate::.cpu.inst     0.000075                       # mshr miss rate for overall accesses
system.cpu.icache.overall_mshr_miss_rate::total     0.000075                       # mshr miss rate for overall accesses
system.cpu.icache.demand_avg_mshr_miss_latency::.cpu.inst 70553.040103                       # average overall mshr miss latency
system.cpu.icache.demand_avg_mshr_miss_latency::total 70553.040103                       # average overall mshr miss latency
system.cpu.icache.overall_avg_mshr_miss_latency::.cpu.inst 70553.040103                       # average overall mshr miss latency
system.cpu.icache.overall_avg_mshr_miss_latency::total 70553.040103                       # average overall mshr miss latency
system.cpu.icache.replacements                    333                       # number of replacements
system.cpu.icache.ReadReq_hits::.cpu.inst     10277647                       # number of ReadReq hits
system.cpu.icache.ReadReq_hits::total        10277647                       # number of ReadReq hits
system.cpu.icache.ReadReq_misses::.cpu.inst          773                       # number of ReadReq misses
system.cpu.icache.ReadReq_misses::total           773                       # number of ReadReq misses
system.cpu.icache.ReadReq_miss_latency::.cpu.inst     55310500                       # number of ReadReq miss cycles
system.cpu.icache.ReadReq_miss_latency::total     55310500                       # number of ReadReq miss cycles
system.cpu.icache.ReadReq_accesses::.cpu.inst     10278420                       # number of ReadReq accesses(hits+misses)
system.cpu.icache.ReadReq_accesses::total     10278420                       # number of ReadReq accesses(hits+misses)
system.cpu.icache.ReadReq_miss_rate::.cpu.inst     0.000075                       # miss rate for ReadReq accesses
system.cpu.icache.ReadReq_miss_rate::total     0.000075                       # miss rate for ReadReq accesses
system.cpu.icache.ReadReq_avg_miss_latency::.cpu.inst 71553.040103                       # average ReadReq miss latency
system.cpu.icache.ReadReq_avg_miss_latency::total 71553.040103                       # average ReadReq miss latency
system.cpu.icache.ReadReq_mshr_misses::.cpu.inst          773                       # number of ReadReq MSHR misses
system.cpu.icache.ReadReq_mshr_misses::total          773                       # number of ReadReq MSHR misses
system.cpu.icache.ReadReq_mshr_miss_latency::.cpu.inst     54537500                       # number of ReadReq MSHR miss cycles
system.cpu.icache.ReadReq_mshr_miss_latency::total     54537500                       # number of ReadReq MSHR miss cycles
system.cpu.icache.ReadReq_mshr_miss_rate::.cpu.inst     0.000075                       # mshr miss rate for ReadReq accesses
system.cpu.icache.ReadReq_mshr_miss_rate::total     0.000075                       # mshr miss rate for ReadReq accesses
system.cpu.icache.ReadReq_avg_mshr_miss_latency::.cpu.inst 70553.040103                       # average ReadReq mshr miss latency
system.cpu.icache.ReadReq_avg_mshr_miss_latency::total 70553.040103                       # average ReadReq mshr miss latency
system.cpu.icache.power_state.pwrStateResidencyTicks::UNDEFINED  80866013500                       # Cumulative time (in ticks) in various power states
system.cpu.icache.tags.tagsinuse           355.128366                       # Cycle average of tags in use
system.cpu.icache.tags.total_refs            10278420                       # Total number of references to valid blocks.
system.cpu.icache.tags.sampled_refs               773                       # Sample count of references to valid blocks.
system.cpu.icache.tags.avg_refs          13296.791721                       # Average number of references to valid blocks.
system.cpu.icache.tags.warmup_cycle             87500                       # Cycle when the warmup percentage was hit.
system.cpu.icache.tags.occ_blocks::.cpu.inst   355.128366                       # Average occupied blocks per requestor
system.cpu.icache.tags.occ_percent::.cpu.inst     0.693610                       # Average percentage of cache occupancy
system.cpu.icache.tags.occ_percent::total     0.693610                       # Average percentage of cache occupancy
system.cpu.icache.tags.occ_task_id_blocks::1024          440                       # Occupied blocks per task id
system.cpu.icache.tags.age_task_id_blocks_1024::3          107                       # Occupied blocks per task id
system.cpu.icache.tags.age_task_id_blocks_1024::4          333                       # Occupied blocks per task id
system.cpu.icache.tags.occ_task_id_percent::1024     0.859375                       # Percentage of cache occupancy per task id
system.cpu.icache.tags.tag_accesses          20557613                       # Number of tag accesses
system.cpu.icache.tags.data_accesses         20557613                       # Number of data accesses
system.cpu.icache.tags.power_state.pwrStateResidencyTicks::UNDEFINED  80866013500                       # Cumulative time (in ticks) in various power states
system.cpu.itb.instHits                             0                       # ITB inst hits
system.cpu.itb.instMisses                           0                       # ITB inst misses
system.cpu.itb.readHits                             0                       # DTB read hits
system.cpu.itb.readMisses                           0                       # DTB read misses
system.cpu.itb.writeHits                            0                       # DTB write hits
system.cpu.itb.writeMisses                          0                       # DTB write misses
system.cpu.itb.inserts                              0                       # Number of times an entry is inserted into the TLB
system.cpu.itb.flushTlb                             0                       # Number of times complete TLB was flushed
system.cpu.itb.flushTlbMva                          0                       # Number of times TLB was flushed by MVA
system.cpu.itb.flushTlbMvaAsid                      0                       # Number of times TLB was flushed by MVA & ASID
system.cpu.itb.flushTlbAsid                         0                       # Number of times TLB was flushed by ASID
system.cpu.itb.flushedEntries                       0                       # Number of entries that have been flushed from TLB
system.cpu.itb.alignFaults                          0                       # Number of TLB faults due to alignment restrictions
system.cpu.itb.prefetchFaults                       0                       # Number of TLB faults due to prefetch
system.cpu.itb.domainFaults                         0                       # Number of TLB faults due to domain restrictions
system.cpu.itb.permsFaults                          0                       # Number of TLB faults due to permissions restrictions
system.cpu.itb.readAccesses                         0                       # DTB read accesses
system.cpu.itb.writeAccesses                        0                       # DTB write accesses
system.cpu.itb.instAccesses                         0                       # ITB inst accesses
system.cpu.itb.hits                                 0                       # Total TLB (inst and data) hits
system.cpu.itb.misses                               0                       # Total TLB (inst and data) misses
system.cpu.itb.accesses                             0                       # Total TLB (inst and data) accesses
system.cpu.itb.stage2_mmu.stage2_tlb.instHits            0                       # ITB inst hits
system.cpu.itb.stage2_mmu.stage2_tlb.instMisses            0                       # ITB inst misses
system.cpu.itb.stage2_mmu.stage2_tlb.readHits            0                       # DTB read hits
system.cpu.itb.stage2_mmu.stage2_tlb.readMisses            0                       # DTB read misses
system.cpu.itb.stage2_mmu.stage2_tlb.writeHits            0                       # DTB write hits
system.cpu.itb.stage2_mmu.stage2_tlb.writeMisses            0                       # DTB write misses
system.cpu.itb.stage2_mmu.stage2_tlb.inserts            0                       # Number of times an entry is inserted into the TLB
system.cpu.itb.stage2_mmu.stage2_tlb.flushTlb            0                       # Number of times complete TLB was flushed
system.cpu.itb.stage2_mmu.stage2_tlb.flushTlbMva            0                       # Number of times TLB was flushed by MVA
system.cpu.itb.stage2_mmu.stage2_tlb.flushTlbMvaAsid            0                       # Number of times TLB was flushed by MVA & ASID
system.cpu.itb.stage2_mmu.stage2_tlb.flushTlbAsid            0                       # Number of times TLB was flushed by ASID
system.cpu.itb.stage2_mmu.stage2_tlb.flushedEntries            0                       # Number of entries that have been flushed from TLB
system.cpu.itb.stage2_mmu.stage2_tlb.alignFaults            0                       # Number of TLB faults due to alignment restrictions
system.cpu.itb.stage2_mmu.stage2_tlb.prefetchFaults            0                       # Number of TLB faults due to prefetch
system.cpu.itb.stage2_mmu.stage2_tlb.domainFaults            0                       # Number of TLB faults due to domain restrictions
system.cpu.itb.stage2_mmu.stage2_tlb.permsFaults            0                       # Number of TLB faults due to permissions restrictions
system.cpu.itb.stage2_mmu.stage2_tlb.readAccesses            0                       # DTB read accesses
system.cpu.itb.stage2_mmu.stage2_tlb.writeAccesses            0                       # DTB write accesses
system.cpu.itb.stage2_mmu.stage2_tlb.instAccesses            0                       # ITB inst accesses
system.cpu.itb.stage2_mmu.stage2_tlb.hits            0                       # Total TLB (inst and data) hits
system.cpu.itb.stage2_mmu.stage2_tlb.misses            0                       # Total TLB (inst and data) misses
system.cpu.itb.stage2_mmu.stage2_tlb.accesses            0                       # Total TLB (inst and data) accesses
system.cpu.itb.stage2_mmu.stage2_tlb.walker.walks            0                       # Table walker walks requested
system.cpu.itb.stage2_mmu.stage2_tlb.walker.requestOrigin_Requested::Data            0                       # Table walker requests started/completed, data/inst
system.cpu.itb.stage2_mmu.stage2_tlb.walker.requestOrigin_Requested::Inst            0                       # Table walker requests started/completed, data/inst
system.cpu.itb.stage2_mmu.stage2_tlb.walker.requestOrigin_Requested::total            0                       # Table walker requests started/completed, data/inst
system.cpu.itb.stage2_mmu.stage2_tlb.walker.requestOrigin_Completed::Data            0                       # Table walker requests started/completed, data/inst
system.cpu.itb.stage2_mmu.stage2_tlb.walker.requestOrigin_Completed::Inst            0                       # Table walker requests started/completed, data/inst
system.cpu.itb.stage2_mmu.stage2_tlb.walker.requestOrigin_Completed::total            0                       # Table walker requests started/completed, data/inst
system.cpu.itb.stage2_mmu.stage2_tlb.walker.requestOrigin::total            0                       # Table walker requests started/completed, data/inst
system.cpu.itb.stage2_mmu.stage2_tlb.walker.power_state.pwrStateResidencyTicks::UNDEFINED  80866013500                       # Cumulative time (in ticks) in various power states
system.cpu.itb.walker.walks                         0                       # Table walker walks requested
system.cpu.itb.walker.requestOrigin_Requested::Data            0                       # Table walker requests started/completed, data/inst
system.cpu.itb.walker.requestOrigin_Requested::Inst            0                       # Table walker requests started/completed, data/inst
system.cpu.itb.walker.requestOrigin_Requested::total            0                       # Table walker requests started/completed, data/inst
system.cpu.itb.walker.requestOrigin_Completed::Data            0                       # Table walker requests started/completed, data/inst
system.cpu.itb.walker.requestOrigin_Completed::Inst            0                       # Table walker requests started/completed, data/inst
system.cpu.itb.walker.requestOrigin_Completed::total            0                       # Table walker requests started/completed, data/inst
system.cpu.itb.walker.requestOrigin::total            0                       # Table walker requests started/completed, data/inst
system.cpu.itb.walker.power_state.pwrStateResidencyTicks::UNDEFINED  80866013500                       # Cumulative time (in ticks) in various power states
system.cpu.power_state.pwrStateResidencyTicks::ON  80866013500                       # Cumulative time (in ticks) in various power states
system.cpu.thread_0.numInsts                100000001                       # Number of Instructions committed
system.cpu.thread_0.numOps                  100196356                       # Number of Ops committed
system.cpu.thread_0.numMemRefs                      0                       # Number of Memory References
system.cpu_clk_domain.clock                       500                       # Clock period in ticks
system.cpu_voltage_domain.voltage                   1                       # Voltage in Volts
system.l2.demand_hits::.cpu.inst                  102                       # number of demand (read+write) hits
system.l2.demand_hits::.cpu.data               346776                       # number of demand (read+write) hits
system.l2.demand_hits::total                   346878                       # number of demand (read+write) hits
system.l2.overall_hits::.cpu.inst                 102                       # number of overall hits
system.l2.overall_hits::.cpu.data              346776                       # number of overall hits
system.l2.overall_hits::total                  346878                       # number of overall hits
system.l2.demand_misses::.cpu.inst                671                       # number of demand (read+write) misses
system.l2.demand_misses::.cpu.data             180005                       # number of demand (read+write) misses
system.l2.demand_misses::total                 180676                       # number of demand (read+write) misses
system.l2.overall_misses::.cpu.inst               671                       # number of overall misses
system.l2.overall_misses::.cpu.data            180005                       # number of overall misses
system.l2.overall_misses::total                180676                       # number of overall misses
system.l2.demand_miss_latency::.cpu.inst     52288500                       # number of demand (read+write) miss cycles
system.l2.demand_miss_latency::.cpu.data  14810981000                       # number of demand (read+write) miss cycles
system.l2.demand_miss_latency::total      14863269500                       # number of demand (read+write) miss cycles
system.l2.overall_miss_latency::.cpu.inst     52288500                       # number of overall miss cycles
system.l2.overall_miss_latency::.cpu.data  14810981000                       # number of overall miss cycles
system.l2.overall_miss_latency::total     14863269500                       # number of overall miss cycles
system.l2.demand_accesses::.cpu.inst              773                       # number of demand (read+write) accesses
system.l2.demand_accesses::.cpu.data           526781                       # number of demand (read+write) accesses
system.l2.demand_accesses::total               527554                       # number of demand (read+write) accesses
system.l2.overall_accesses::.cpu.inst             773                       # number of overall (read+write) accesses
system.l2.overall_accesses::.cpu.data          526781                       # number of overall (read+write) accesses
system.l2.overall_accesses::total              527554                       # number of overall (read+write) accesses
system.l2.demand_miss_rate::.cpu.inst        0.868047                       # miss rate for demand accesses
system.l2.demand_miss_rate::.cpu.data        0.341707                       # miss rate for demand accesses
system.l2.demand_miss_rate::total            0.342479                       # miss rate for demand accesses
system.l2.overall_miss_rate::.cpu.inst       0.868047                       # miss rate for overall accesses
system.l2.overall_miss_rate::.cpu.data       0.341707                       # miss rate for overall accesses
system.l2.overall_miss_rate::total           0.342479                       # miss rate for overall accesses
system.l2.demand_avg_miss_latency::.cpu.inst 77926.229508                       # average overall miss latency
system.l2.demand_avg_miss_latency::.cpu.data 82280.942196                       # average overall miss latency
system.l2.demand_avg_miss_latency::total 82264.769532                       # average overall miss latency
system.l2.overall_avg_miss_latency::.cpu.inst 77926.229508                       # average overall miss latency
system.l2.overall_avg_miss_latency::.cpu.data 82280.942196                       # average overall miss latency
system.l2.overall_avg_miss_latency::total 82264.769532                       # average overall miss latency
system.l2.blocked_cycles::no_mshrs                  0                       # number of cycles access was blocked
system.l2.blocked_cycles::no_targets                0                       # number of cycles access was blocked
system.l2.blocked::no_mshrs                         0                       # number of cycles access was blocked
system.l2.blocked::no_targets                       0                       # number of cycles access was blocked
system.l2.avg_blocked_cycles::no_mshrs            nan                       # average number of cycles each access was blocked
system.l2.avg_blocked_cycles::no_targets          nan                       # average number of cycles each access was blocked
system.l2.writebacks::.writebacks               68661                       # number of writebacks
system.l2.writebacks::total                     68661                       # number of writebacks
system.l2.demand_mshr_hits::.cpu.data               6                       # number of demand (read+write) MSHR hits
system.l2.demand_mshr_hits::total                   6                       # number of demand (read+write) MSHR hits
system.l2.overall_mshr_hits::.cpu.data              6                       # number of overall MSHR hits
system.l2.overall_mshr_hits::total                  6                       # number of overall MSHR hits
system.l2.demand_mshr_misses::.cpu.inst           671                       # number of demand (read+write) MSHR misses
system.l2.demand_mshr_misses::.cpu.data        179999                       # number of demand (read+write) MSHR misses
system.l2.demand_mshr_misses::total            180670                       # number of demand (read+write) MSHR misses
system.l2.overall_mshr_misses::.cpu.inst          671                       # number of overall MSHR misses
system.l2.overall_mshr_misses::.cpu.data       179999                       # number of overall MSHR misses
system.l2.overall_mshr_misses::total           180670                       # number of overall MSHR misses
system.l2.demand_mshr_miss_latency::.cpu.inst     45578500                       # number of demand (read+write) MSHR miss cycles
system.l2.demand_mshr_miss_latency::.cpu.data  13010613500                       # number of demand (read+write) MSHR miss cycles
system.l2.demand_mshr_miss_latency::total  13056192000                       # number of demand (read+write) MSHR miss cycles
system.l2.overall_mshr_miss_latency::.cpu.inst     45578500                       # number of overall MSHR miss cycles
system.l2.overall_mshr_miss_latency::.cpu.data  13010613500                       # number of overall MSHR miss cycles
system.l2.overall_mshr_miss_latency::total  13056192000                       # number of overall MSHR miss cycles
system.l2.demand_mshr_miss_rate::.cpu.inst     0.868047                       # mshr miss rate for demand accesses
system.l2.demand_mshr_miss_rate::.cpu.data     0.341696                       # mshr miss rate for demand accesses
system.l2.demand_mshr_miss_rate::total       0.342467                       # mshr miss rate for demand accesses
system.l2.overall_mshr_miss_rate::.cpu.inst     0.868047                       # mshr miss rate for overall accesses
system.l2.overall_mshr_miss_rate::.cpu.data     0.341696                       # mshr miss rate for overall accesses
system.l2.overall_mshr_miss_rate::total      0.342467                       # mshr miss rate for overall accesses
system.l2.demand_avg_mshr_miss_latency::.cpu.inst 67926.229508                       # average overall mshr miss latency
system.l2.demand_avg_mshr_miss_latency::.cpu.data 72281.587675                       # average overall mshr miss latency
system.l2.demand_avg_mshr_miss_latency::total 72265.412077                       # average overall mshr miss latency
system.l2.overall_avg_mshr_miss_latency::.cpu.inst 67926.229508                       # average overall mshr miss latency
system.l2.overall_avg_mshr_miss_latency::.cpu.data 72281.587675                       # average overall mshr miss latency
system.l2.overall_avg_mshr_miss_latency::total 72265.412077                       # average overall mshr miss latency
system.l2.replacements                         115263                       # number of replacements
system.l2.WritebackDirty_hits::.writebacks       469881                       # number of WritebackDirty hits
system.l2.WritebackDirty_hits::total           469881                       # number of WritebackDirty hits
system.l2.WritebackDirty_accesses::.writebacks       469881                       # number of WritebackDirty accesses(hits+misses)
system.l2.WritebackDirty_accesses::total       469881                       # number of WritebackDirty accesses(hits+misses)
system.l2.WritebackClean_hits::.writebacks          324                       # number of WritebackClean hits
system.l2.WritebackClean_hits::total              324                       # number of WritebackClean hits
system.l2.WritebackClean_accesses::.writebacks          324                       # number of WritebackClean accesses(hits+misses)
system.l2.WritebackClean_accesses::total          324                       # number of WritebackClean accesses(hits+misses)
system.l2.ReadExReq_hits::.cpu.data            115775                       # number of ReadExReq hits
system.l2.ReadExReq_hits::total                115775                       # number of ReadExReq hits
system.l2.ReadExReq_misses::.cpu.data          127723                       # number of ReadExReq misses
system.l2.ReadExReq_misses::total              127723                       # number of ReadExReq misses
system.l2.ReadExReq_miss_latency::.cpu.data  10786278000                       # number of ReadExReq miss cycles
system.l2.ReadExReq_miss_latency::total   10786278000                       # number of ReadExReq miss cycles
system.l2.ReadExReq_accesses::.cpu.data        243498                       # number of ReadExReq accesses(hits+misses)
system.l2.ReadExReq_accesses::total            243498                       # number of ReadExReq accesses(hits+misses)
system.l2.ReadExReq_miss_rate::.cpu.data     0.524534                       # miss rate for ReadExReq accesses
system.l2.ReadExReq_miss_rate::total         0.524534                       # miss rate for ReadExReq accesses
system.l2.ReadExReq_avg_miss_latency::.cpu.data 84450.553150                       # average ReadExReq miss latency
system.l2.ReadExReq_avg_miss_latency::total 84450.553150                       # average ReadExReq miss latency
system.l2.ReadExReq_mshr_misses::.cpu.data       127723                       # number of ReadExReq MSHR misses
system.l2.ReadExReq_mshr_misses::total         127723                       # number of ReadExReq MSHR misses
system.l2.ReadExReq_mshr_miss_latency::.cpu.data   9509048000                       # number of ReadExReq MSHR miss cycles
system.l2.ReadExReq_mshr_miss_latency::total   9509048000                       # number of ReadExReq MSHR miss cycles
system.l2.ReadExReq_mshr_miss_rate::.cpu.data     0.524534                       # mshr miss rate for ReadExReq accesses
system.l2.ReadExReq_mshr_miss_rate::total     0.524534                       # mshr miss rate for ReadExReq accesses
system.l2.ReadExReq_avg_mshr_miss_latency::.cpu.data 74450.553150                       # average ReadExReq mshr miss latency
system.l2.ReadExReq_avg_mshr_miss_latency::total 74450.553150                       # average ReadExReq mshr miss latency
system.l2.ReadCleanReq_hits::.cpu.inst            102                       # number of ReadCleanReq hits
system.l2.ReadCleanReq_hits::total                102                       # number of ReadCleanReq hits
system.l2.ReadCleanReq_misses::.cpu.inst          671                       # number of ReadCleanReq misses
system.l2.ReadCleanReq_misses::total              671                       # number of ReadCleanReq misses
system.l2.ReadCleanReq_miss_latency::.cpu.inst     52288500                       # number of ReadCleanReq miss cycles
system.l2.ReadCleanReq_miss_latency::total     52288500                       # number of ReadCleanReq miss cycles
system.l2.ReadCleanReq_accesses::.cpu.inst          773                       # number of ReadCleanReq accesses(hits+misses)
system.l2.ReadCleanReq_accesses::total            773                       # number of ReadCleanReq accesses(hits+misses)
system.l2.ReadCleanReq_miss_rate::.cpu.inst     0.868047                       # miss rate for ReadCleanReq accesses
system.l2.ReadCleanReq_miss_rate::total      0.868047                       # miss rate for ReadCleanReq accesses
system.l2.ReadCleanReq_avg_miss_latency::.cpu.inst 77926.229508                       # average ReadCleanReq miss latency
system.l2.ReadCleanReq_avg_miss_latency::total 77926.229508                       # average ReadCleanReq miss latency
system.l2.ReadCleanReq_mshr_misses::.cpu.inst          671                       # number of ReadCleanReq MSHR misses
system.l2.ReadCleanReq_mshr_misses::total          671                       # number of ReadCleanReq MSHR misses
system.l2.ReadCleanReq_mshr_miss_latency::.cpu.inst     45578500                       # number of ReadCleanReq MSHR miss cycles
system.l2.ReadCleanReq_mshr_miss_latency::total     45578500                       # number of ReadCleanReq MSHR miss cycles
system.l2.ReadCleanReq_mshr_miss_rate::.cpu.inst     0.868047                       # mshr miss rate for ReadCleanReq accesses
system.l2.ReadCleanReq_mshr_miss_rate::total     0.868047                       # mshr miss rate for ReadCleanReq accesses
system.l2.ReadCleanReq_avg_mshr_miss_latency::.cpu.inst 67926.229508                       # average ReadCleanReq mshr miss latency
system.l2.ReadCleanReq_avg_mshr_miss_latency::total 67926.229508                       # average ReadCleanReq mshr miss latency
system.l2.ReadSharedReq_hits::.cpu.data        231001                       # number of ReadSharedReq hits
system.l2.ReadSharedReq_hits::total            231001                       # number of ReadSharedReq hits
system.l2.ReadSharedReq_misses::.cpu.data        52282                       # number of ReadSharedReq misses
system.l2.ReadSharedReq_misses::total           52282                       # number of ReadSharedReq misses
system.l2.ReadSharedReq_miss_latency::.cpu.data   4024703000                       # number of ReadSharedReq miss cycles
system.l2.ReadSharedReq_miss_latency::total   4024703000                       # number of ReadSharedReq miss cycles
system.l2.ReadSharedReq_accesses::.cpu.data       283283                       # number of ReadSharedReq accesses(hits+misses)
system.l2.ReadSharedReq_accesses::total        283283                       # number of ReadSharedReq accesses(hits+misses)
system.l2.ReadSharedReq_miss_rate::.cpu.data     0.184557                       # miss rate for ReadSharedReq accesses
system.l2.ReadSharedReq_miss_rate::total     0.184557                       # miss rate for ReadSharedReq accesses
system.l2.ReadSharedReq_avg_miss_latency::.cpu.data 76980.662561                       # average ReadSharedReq miss latency
system.l2.ReadSharedReq_avg_miss_latency::total 76980.662561                       # average ReadSharedReq miss latency
system.l2.ReadSharedReq_mshr_hits::.cpu.data            6                       # number of ReadSharedReq MSHR hits
system.l2.ReadSharedReq_mshr_hits::total            6                       # number of ReadSharedReq MSHR hits
system.l2.ReadSharedReq_mshr_misses::.cpu.data        52276                       # number of ReadSharedReq MSHR misses
system.l2.ReadSharedReq_mshr_misses::total        52276                       # number of ReadSharedReq MSHR misses
system.l2.ReadSharedReq_mshr_miss_latency::.cpu.data   3501565500                       # number of ReadSharedReq MSHR miss cycles
system.l2.ReadSharedReq_mshr_miss_latency::total   3501565500                       # number of ReadSharedReq MSHR miss cycles
system.l2.ReadSharedReq_mshr_miss_rate::.cpu.data     0.184536                       # mshr miss rate for ReadSharedReq accesses
system.l2.ReadSharedReq_mshr_miss_rate::total     0.184536                       # mshr miss rate for ReadSharedReq accesses
system.l2.ReadSharedReq_avg_mshr_miss_latency::.cpu.data 66982.276762                       # average ReadSharedReq mshr miss latency
system.l2.ReadSharedReq_avg_mshr_miss_latency::total 66982.276762                       # average ReadSharedReq mshr miss latency
system.l2.power_state.pwrStateResidencyTicks::UNDEFINED  80866013500                       # Cumulative time (in ticks) in various power states
system.l2.tags.tagsinuse                 63130.009200                       # Cycle average of tags in use
system.l2.tags.total_refs                     1052551                       # Total number of references to valid blocks.
system.l2.tags.sampled_refs                    180799                       # Sample count of references to valid blocks.
system.l2.tags.avg_refs                      5.821664                       # Average number of references to valid blocks.
system.l2.tags.warmup_cycle                     77000                       # Cycle when the warmup percentage was hit.
system.l2.tags.occ_blocks::.writebacks      69.980929                       # Average occupied blocks per requestor
system.l2.tags.occ_blocks::.cpu.inst       123.149344                       # Average occupied blocks per requestor
system.l2.tags.occ_blocks::.cpu.data     62936.878928                       # Average occupied blocks per requestor
system.l2.tags.occ_percent::.writebacks      0.001068                       # Average percentage of cache occupancy
system.l2.tags.occ_percent::.cpu.inst        0.001879                       # Average percentage of cache occupancy
system.l2.tags.occ_percent::.cpu.data        0.960341                       # Average percentage of cache occupancy
system.l2.tags.occ_percent::total            0.963287                       # Average percentage of cache occupancy
system.l2.tags.occ_task_id_blocks::1024         65536                       # Occupied blocks per task id
system.l2.tags.age_task_id_blocks_1024::1            3                       # Occupied blocks per task id
system.l2.tags.age_task_id_blocks_1024::2            9                       # Occupied blocks per task id
system.l2.tags.age_task_id_blocks_1024::3         5742                       # Occupied blocks per task id
system.l2.tags.age_task_id_blocks_1024::4        59782                       # Occupied blocks per task id
system.l2.tags.occ_task_id_percent::1024            1                       # Percentage of cache occupancy per task id
system.l2.tags.tag_accesses                   8601255                       # Number of tag accesses
system.l2.tags.data_accesses                  8601255                       # Number of data accesses
system.l2.tags.power_state.pwrStateResidencyTicks::UNDEFINED  80866013500                       # Cumulative time (in ticks) in various power states
system.mem_ctrls.avgPriority_.writebacks::samples     68661.00                       # Average QoS priority value for accepted requests
system.mem_ctrls.avgPriority_.cpu.inst::samples       671.00                       # Average QoS priority value for accepted requests
system.mem_ctrls.avgPriority_.cpu.data::samples    179984.00                       # Average QoS priority value for accepted requests
system.mem_ctrls.priorityMinLatency      0.000000018750                       # per QoS priority minimum request to response latency (s)
system.mem_ctrls.priorityMaxLatency      0.006348824500                       # per QoS priority maximum request to response latency (s)
system.mem_ctrls.numReadWriteTurnArounds         4120                       # Number of turnarounds from READ to WRITE
system.mem_ctrls.numWriteReadTurnArounds         4120                       # Number of turnarounds from WRITE to READ
system.mem_ctrls.numStayReadState              444005                       # Number of times bus staying in READ state
system.mem_ctrls.numStayWriteState              64608                       # Number of times bus staying in WRITE state
system.mem_ctrls.readReqs                      180670                       # Number of read requests accepted
system.mem_ctrls.writeReqs                      68661                       # Number of write requests accepted
system.mem_ctrls.readBursts                    180670                       # Number of controller read bursts, including those serviced by the write queue
system.mem_ctrls.writeBursts                    68661                       # Number of controller write bursts, including those merged in the write queue
system.mem_ctrls.servicedByWrQ                     15                       # Number of controller read bursts serviced by the write queue
system.mem_ctrls.mergedWrBursts                     0                       # Number of controller write bursts merged with an existing one
system.mem_ctrls.neitherReadNorWriteReqs            0                       # Number of requests that are neither read nor write
system.mem_ctrls.avgRdQLen                       1.08                       # Average read queue length when enqueuing
system.mem_ctrls.avgWrQLen                      24.73                       # Average write queue length when enqueuing
system.mem_ctrls.numRdRetry                         0                       # Number of times read queue was full causing retry
system.mem_ctrls.numWrRetry                         0                       # Number of times write queue was full causing retry
system.mem_ctrls.readPktSize::0                     0                       # Read request sizes (log2)
system.mem_ctrls.readPktSize::1                     0                       # Read request sizes (log2)
system.mem_ctrls.readPktSize::2                     0                       # Read request sizes (log2)
system.mem_ctrls.readPktSize::3                     0                       # Read request sizes (log2)
system.mem_ctrls.readPktSize::4                     0                       # Read request sizes (log2)
system.mem_ctrls.readPktSize::5                     0                       # Read request sizes (log2)
system.mem_ctrls.readPktSize::6                180670                       # Read request sizes (log2)
system.mem_ctrls.writePktSize::0                    0                       # Write request sizes (log2)
system.mem_ctrls.writePktSize::1                    0                       # Write request sizes (log2)
system.mem_ctrls.writePktSize::2                    0                       # Write request sizes (log2)
system.mem_ctrls.writePktSize::3                    0                       # Write request sizes (log2)
system.mem_ctrls.writePktSize::4                    0                       # Write request sizes (log2)
system.mem_ctrls.writePktSize::5                    0                       # Write request sizes (log2)
system.mem_ctrls.writePktSize::6                68661                       # Write request sizes (log2)
system.mem_ctrls.rdQLenPdf::0                  121283                       # What read queue length does an incoming req see
system.mem_ctrls.rdQLenPdf::1                   56872                       # What read queue length does an incoming req see
system.mem_ctrls.rdQLenPdf::2                    2245                       # What read queue length does an incoming req see
system.mem_ctrls.rdQLenPdf::3                     254                       # What read queue length does an incoming req see
system.mem_ctrls.rdQLenPdf::4                       1                       # What read queue length does an incoming req see
system.mem_ctrls.rdQLenPdf::5                       0                       # What read queue length does an incoming req see
system.mem_ctrls.rdQLenPdf::6                       0                       # What read queue length does an incoming req see
system.mem_ctrls.rdQLenPdf::7                       0                       # What read queue length does an incoming req see
system.mem_ctrls.rdQLenPdf::8                       0                       # What read queue length does an incoming req see
system.mem_ctrls.rdQLenPdf::9                       0                       # What read queue length does an incoming req see
system.mem_ctrls.rdQLenPdf::10                      0                       # What read queue length does an incoming req see
[...]
system.mem_ctrls.dram.bw_write::.writebacks     54340554                       # Write bandwidth from this memory (bytes/s)
system.mem_ctrls.dram.bw_write::total        54340554                       # Write bandwidth from this memory (bytes/s)
system.mem_ctrls.dram.bw_total::.writebacks     54340554                       # Total bandwidth to/from this memory (bytes/s)
system.mem_ctrls.dram.bw_total::.cpu.inst       531051                       # Total bandwidth to/from this memory (bytes/s)
system.mem_ctrls.dram.bw_total::.cpu.data    142457078                       # Total bandwidth to/from this memory (bytes/s)
system.mem_ctrls.dram.bw_total::total       197328684                       # Total bandwidth to/from this memory (bytes/s)
system.mem_ctrls.dram.readBursts               180655                       # Number of DRAM read bursts
system.mem_ctrls.dram.writeBursts               68637                       # Number of DRAM write bursts
system.mem_ctrls.dram.perBankRdBursts::0        11392                       # Per bank write bursts
system.mem_ctrls.dram.perBankRdBursts::1        11431                       # Per bank write bursts
system.mem_ctrls.dram.perBankRdBursts::2        11421                       # Per bank write bursts
system.mem_ctrls.dram.perBankRdBursts::3        11409                       # Per bank write bursts
system.mem_ctrls.dram.perBankRdBursts::4        11392                       # Per bank write bursts
system.mem_ctrls.dram.perBankRdBursts::5        11246                       # Per bank write bursts
system.mem_ctrls.dram.perBankRdBursts::6        11241                       # Per bank write bursts
system.mem_ctrls.dram.perBankRdBursts::7        11154                       # Per bank write bursts
system.mem_ctrls.dram.perBankRdBursts::8        11292                       # Per bank write bursts
system.mem_ctrls.dram.perBankRdBursts::9        11040                       # Per bank write bursts
system.mem_ctrls.dram.perBankRdBursts::10        11316                       # Per bank write bursts
system.mem_ctrls.dram.perBankRdBursts::11        11320                       # Per bank write bursts
system.mem_ctrls.dram.perBankRdBursts::12        11279                       # Per bank write bursts
system.mem_ctrls.dram.perBankRdBursts::13        11331                       # Per bank write bursts
system.mem_ctrls.dram.perBankRdBursts::14        11221                       # Per bank write bursts
system.mem_ctrls.dram.perBankRdBursts::15        11170                       # Per bank write bursts
system.mem_ctrls.dram.perBankWrBursts::0         4279                       # Per bank write bursts
system.mem_ctrls.dram.perBankWrBursts::1         4473                       # Per bank write bursts
system.mem_ctrls.dram.perBankWrBursts::2         4383                       # Per bank write bursts
system.mem_ctrls.dram.perBankWrBursts::3         4389                       # Per bank write bursts
system.mem_ctrls.dram.perBankWrBursts::4         4381                       # Per bank write bursts
system.mem_ctrls.dram.perBankWrBursts::5         4284                       # Per bank write bursts
system.mem_ctrls.dram.perBankWrBursts::6         4303                       # Per bank write bursts
system.mem_ctrls.dram.perBankWrBursts::7         4295                       # Per bank write bursts
system.mem_ctrls.dram.perBankWrBursts::8         4293                       # Per bank write bursts
system.mem_ctrls.dram.perBankWrBursts::9         4212                       # Per bank write bursts
system.mem_ctrls.dram.perBankWrBursts::10         4225                       # Per bank write bursts
system.mem_ctrls.dram.perBankWrBursts::11         4224                       # Per bank write bursts
system.mem_ctrls.dram.perBankWrBursts::12         4224                       # Per bank write bursts
system.mem_ctrls.dram.perBankWrBursts::13         4224                       # Per bank write bursts
system.mem_ctrls.dram.perBankWrBursts::14         4224                       # Per bank write bursts
system.mem_ctrls.dram.perBankWrBursts::15         4224                       # Per bank write bursts
system.mem_ctrls.dram.totQLat              2221556250                       # Total ticks spent queuing
system.mem_ctrls.dram.totBusLat             903275000                       # Total ticks spent in databus transfers
system.mem_ctrls.dram.totMemAccLat         5608837500                       # Total ticks spent from burst creation until serviced by the DRAM
system.mem_ctrls.dram.avgQLat                12297.23                       # Average queueing delay per DRAM burst
system.mem_ctrls.dram.avgBusLat               5000.00                       # Average bus latency per DRAM burst
system.mem_ctrls.dram.avgMemAccLat           31047.23                       # Average memory access latency per DRAM burst
system.mem_ctrls.dram.readRowHits              131849                       # Number of row buffer hits during reads
system.mem_ctrls.dram.writeRowHits              51525                       # Number of row buffer hits during writes
system.mem_ctrls.dram.readRowHitRate            72.98                       # Row buffer hit rate for reads
system.mem_ctrls.dram.writeRowHitRate           75.07                       # Row buffer hit rate for writes
system.mem_ctrls.dram.bytesPerActivate::samples        65918                       # Bytes accessed per row activation
system.mem_ctrls.dram.bytesPerActivate::mean   242.038411                       # Bytes accessed per row activation
system.mem_ctrls.dram.bytesPerActivate::gmean   134.138689                       # Bytes accessed per row activation
system.mem_ctrls.dram.bytesPerActivate::stdev   294.977898                       # Bytes accessed per row activation
system.mem_ctrls.dram.bytesPerActivate::0-127        38544     58.47%     58.47% # Bytes accessed per row activation
system.mem_ctrls.dram.bytesPerActivate::128-255         8730     13.24%     71.72% # Bytes accessed per row activation
system.mem_ctrls.dram.bytesPerActivate::256-383         1501      2.28%     73.99% # Bytes accessed per row activation
system.mem_ctrls.dram.bytesPerActivate::384-511         1228      1.86%     75.86% # Bytes accessed per row activation
system.mem_ctrls.dram.bytesPerActivate::512-639         8483     12.87%     88.73% # Bytes accessed per row activation
system.mem_ctrls.dram.bytesPerActivate::640-767         1387      2.10%     90.83% # Bytes accessed per row activation
system.mem_ctrls.dram.bytesPerActivate::768-895          416      0.63%     91.46% # Bytes accessed per row activation
system.mem_ctrls.dram.bytesPerActivate::896-1023          432      0.66%     92.12% # Bytes accessed per row activation
system.mem_ctrls.dram.bytesPerActivate::1024-1151         5197      7.88%    100.00% # Bytes accessed per row activation
system.mem_ctrls.dram.bytesPerActivate::total        65918                       # Bytes accessed per row activation
system.mem_ctrls.dram.bytesRead              11561920                       # Total number of bytes read from DRAM
system.mem_ctrls.dram.bytesWritten            4392768                       # Total number of bytes written to DRAM
system.mem_ctrls.dram.avgRdBW              142.976258                       # Average DRAM read bandwidth in MiBytes/s
system.mem_ctrls.dram.avgWrBW               54.321560                       # Average DRAM write bandwidth in MiBytes/s
system.mem_ctrls.dram.peakBW                 12800.00                       # Theoretical peak bandwidth in MiByte/s
system.mem_ctrls.dram.busUtil                    1.54                       # Data bus utilization in percentage
system.mem_ctrls.dram.busUtilRead                1.12                       # Data bus utilization in percentage for reads
system.mem_ctrls.dram.busUtilWrite               0.42                       # Data bus utilization in percentage for writes
system.mem_ctrls.dram.pageHitRate               73.56                       # Row buffer hit rate, read and write combined
system.mem_ctrls.dram.power_state.pwrStateResidencyTicks::UNDEFINED  80866013500                       # Cumulative time (in ticks) in various power states
system.mem_ctrls.dram.rank0.actEnergy       238768740                       # Energy for activate commands per rank (pJ)
system.mem_ctrls.dram.rank0.preEnergy       126908595                       # Energy for precharge commands per rank (pJ)
system.mem_ctrls.dram.rank0.readEnergy      647498040                       # Energy for read commands per rank (pJ)
system.mem_ctrls.dram.rank0.writeEnergy     181588140                       # Energy for write commands per rank (pJ)
system.mem_ctrls.dram.rank0.refreshEnergy 6383036400.000001                       # Energy for refresh commands per rank (pJ)
system.mem_ctrls.dram.rank0.actBackEnergy  19176004410                       # Energy for active background per rank (pJ)
system.mem_ctrls.dram.rank0.preBackEnergy  14904335040                       # Energy for precharge background per rank (pJ)
system.mem_ctrls.dram.rank0.actPowerDownEnergy            0                       # Energy for active power-down per rank (pJ)
system.mem_ctrls.dram.rank0.prePowerDownEnergy            0                       # Energy for precharge power-down per rank (pJ)
system.mem_ctrls.dram.rank0.selfRefreshEnergy            0                       # Energy for self refresh per rank (pJ)
system.mem_ctrls.dram.rank0.totalEnergy   41658139365                       # Total energy per rank (pJ)
system.mem_ctrls.dram.rank0.averagePower   515.150155                       # Core power per rank (mW)
system.mem_ctrls.dram.rank0.totalIdleTime            0                       # Total Idle time Per DRAM Rank
system.mem_ctrls.dram.rank0.pwrStateTime::IDLE  38551706250                       # Time in different power states
system.mem_ctrls.dram.rank0.pwrStateTime::REF   2700100000                       # Time in different power states
system.mem_ctrls.dram.rank0.pwrStateTime::SREF            0                       # Time in different power states
system.mem_ctrls.dram.rank0.pwrStateTime::PRE_PDN            0                       # Time in different power states
system.mem_ctrls.dram.rank0.pwrStateTime::ACT  39614207250                       # Time in different power states
system.mem_ctrls.dram.rank0.pwrStateTime::ACT_PDN            0                       # Time in different power states
system.mem_ctrls.dram.rank1.actEnergy       231885780                       # Energy for activate commands per rank (pJ)
system.mem_ctrls.dram.rank1.preEnergy       123250215                       # Energy for precharge commands per rank (pJ)
system.mem_ctrls.dram.rank1.readEnergy      642378660                       # Energy for read commands per rank (pJ)
system.mem_ctrls.dram.rank1.writeEnergy     176697000                       # Energy for write commands per rank (pJ)
system.mem_ctrls.dram.rank1.refreshEnergy 6383036400.000001                       # Energy for refresh commands per rank (pJ)
system.mem_ctrls.dram.rank1.actBackEnergy  18671544720                       # Energy for active background per rank (pJ)
system.mem_ctrls.dram.rank1.preBackEnergy  15329143200                       # Energy for precharge background per rank (pJ)
system.mem_ctrls.dram.rank1.actPowerDownEnergy            0                       # Energy for active power-down per rank (pJ)
system.mem_ctrls.dram.rank1.prePowerDownEnergy            0                       # Energy for precharge power-down per rank (pJ)
system.mem_ctrls.dram.rank1.selfRefreshEnergy            0                       # Energy for self refresh per rank (pJ)
system.mem_ctrls.dram.rank1.totalEnergy   41557935975                       # Total energy per rank (pJ)
system.mem_ctrls.dram.rank1.averagePower   513.911026                       # Core power per rank (mW)
system.mem_ctrls.dram.rank1.totalIdleTime            0                       # Total Idle time Per DRAM Rank
system.mem_ctrls.dram.rank1.pwrStateTime::IDLE  39661132250                       # Time in different power states
system.mem_ctrls.dram.rank1.pwrStateTime::REF   2700100000                       # Time in different power states
system.mem_ctrls.dram.rank1.pwrStateTime::SREF            0                       # Time in different power states
system.mem_ctrls.dram.rank1.pwrStateTime::PRE_PDN            0                       # Time in different power states
system.mem_ctrls.dram.rank1.pwrStateTime::ACT  38504781250                       # Time in different power states
system.mem_ctrls.dram.rank1.pwrStateTime::ACT_PDN            0                       # Time in different power states
system.mem_ctrls.power_state.pwrStateResidencyTicks::UNDEFINED  80866013500                       # Cumulative time (in ticks) in various power states
system.membus.trans_dist::ReadResp              52947                       # Transaction distribution
system.membus.trans_dist::WritebackDirty        68661                       # Transaction distribution
system.membus.trans_dist::CleanEvict            46145                       # Transaction distribution
system.membus.trans_dist::ReadExReq            127723                       # Transaction distribution
system.membus.trans_dist::ReadExResp           127723                       # Transaction distribution
system.membus.trans_dist::ReadSharedReq         52947                       # Transaction distribution
system.membus.pkt_count_system.l2.mem_side_port::system.mem_ctrls.port       476146                       # Packet count per connected requestor and responder (bytes)
system.membus.pkt_count::total                 476146                       # Packet count per connected requestor and responder (bytes)
system.membus.pkt_size_system.l2.mem_side_port::system.mem_ctrls.port     15957184                       # Cumulative packet size per connected requestor and responder (bytes)
system.membus.pkt_size::total                15957184                       # Cumulative packet size per connected requestor and responder (bytes)
system.membus.snoops                                0                       # Total snoops (count)
system.membus.snoopTraffic                          0                       # Total snoop traffic (bytes)
system.membus.snoop_fanout::samples            180670                       # Request fanout histogram
system.membus.snoop_fanout::mean                    0                       # Request fanout histogram
system.membus.snoop_fanout::stdev                   0                       # Request fanout histogram
system.membus.snoop_fanout::underflows              0      0.00%      0.00% # Request fanout histogram
system.membus.snoop_fanout::0                  180670    100.00%    100.00% # Request fanout histogram
system.membus.snoop_fanout::1                       0      0.00%    100.00% # Request fanout histogram
system.membus.snoop_fanout::overflows               0      0.00%    100.00% # Request fanout histogram
system.membus.snoop_fanout::min_value               0                       # Request fanout histogram
system.membus.snoop_fanout::max_value               0                       # Request fanout histogram
system.membus.snoop_fanout::total              180670                       # Request fanout histogram
system.membus.power_state.pwrStateResidencyTicks::UNDEFINED  80866013500                       # Cumulative time (in ticks) in various power states
system.membus.reqLayer0.occupancy           603559500                       # Layer occupancy (ticks)
system.membus.reqLayer0.utilization               0.7                       # Layer utilization (%)
system.membus.respLayer1.occupancy          971386750                       # Layer occupancy (ticks)
system.membus.respLayer1.utilization              1.2                       # Layer utilization (%)
system.tol2bus.trans_dist::ReadResp            284056                       # Transaction distribution
system.tol2bus.trans_dist::WritebackDirty       538542                       # Transaction distribution
system.tol2bus.trans_dist::WritebackClean          333                       # Transaction distribution
system.tol2bus.trans_dist::CleanEvict          101454                       # Transaction distribution
system.tol2bus.trans_dist::ReadExReq           243498                       # Transaction distribution
system.tol2bus.trans_dist::ReadExResp          243498                       # Transaction distribution
system.tol2bus.trans_dist::ReadCleanReq           773                       # Transaction distribution
system.tol2bus.trans_dist::ReadSharedReq       283283                       # Transaction distribution
system.tol2bus.pkt_count_system.cpu.icache.mem_side_port::system.l2.cpu_side_port         1879                       # Packet count per connected requestor and responder (bytes)
system.tol2bus.pkt_count_system.cpu.dcache.mem_side_port::system.l2.cpu_side_port      1578295                       # Packet count per connected requestor and responder (bytes)
system.tol2bus.pkt_count::total               1580174                       # Packet count per connected requestor and responder (bytes)
system.tol2bus.pkt_size_system.cpu.icache.mem_side_port::system.l2.cpu_side_port        70784                       # Cumulative packet size per connected requestor and responder (bytes)
system.tol2bus.pkt_size_system.cpu.dcache.mem_side_port::system.l2.cpu_side_port     63786368                       # Cumulative packet size per connected requestor and responder (bytes)
system.tol2bus.pkt_size::total               63857152                       # Cumulative packet size per connected requestor and responder (bytes)
system.tol2bus.snoops                          115263                       # Total snoops (count)
system.tol2bus.snoopTraffic                   4394304                       # Total snoop traffic (bytes)
system.tol2bus.snoop_fanout::samples           642817                       # Request fanout histogram
system.tol2bus.snoop_fanout::mean            0.000812                       # Request fanout histogram
system.tol2bus.snoop_fanout::stdev           0.028485                       # Request fanout histogram
system.tol2bus.snoop_fanout::underflows             0      0.00%      0.00% # Request fanout histogram
system.tol2bus.snoop_fanout::0                 642295     99.92%     99.92% # Request fanout histogram
system.tol2bus.snoop_fanout::1                    522      0.08%    100.00% # Request fanout histogram
system.tol2bus.snoop_fanout::2                      0      0.00%    100.00% # Request fanout histogram
system.tol2bus.snoop_fanout::overflows              0      0.00%    100.00% # Request fanout histogram
system.tol2bus.snoop_fanout::min_value              0                       # Request fanout histogram
system.tol2bus.snoop_fanout::max_value              1                       # Request fanout histogram
system.tol2bus.snoop_fanout::total             642817                       # Request fanout histogram
system.tol2bus.power_state.pwrStateResidencyTicks::UNDEFINED  80866013500                       # Cumulative time (in ticks) in various power states
system.tol2bus.reqLayer0.occupancy          996524000                       # Layer occupancy (ticks)
system.tol2bus.reqLayer0.utilization              1.2                       # Layer utilization (%)
system.tol2bus.respLayer0.occupancy           1159500                       # Layer occupancy (ticks)
system.tol2bus.respLayer0.utilization             0.0                       # Layer utilization (%)
system.tol2bus.respLayer1.occupancy         790174494                       # Layer occupancy (ticks)
system.tol2bus.respLayer1.utilization             1.0                       # Layer utilization (%)
system.voltage_domain.voltage                       1                       # Voltage in Volts

---------- End Simulation Statistics   ----------
