
---------- Begin Simulation Statistics ----------
final_tick                                82490305500                       # Number of ticks from beginning of simulation (restored from checkpoints and never reset)
host_inst_rate                                 443543                       # Simulator instruction rate (inst/s)
host_mem_usage                                 666260                       # Number of bytes of host memory used
host_op_rate                                   444413                       # Simulator op (including micro ops) rate (op/s)
host_seconds                                   225.46                       # Real time elapsed on the host
host_tick_rate                              365879457                       # Simulator tick rate (ticks/s)
sim_freq                                 1000000000000                       # Frequency of simulated ticks
sim_insts                                   100000001                       # Number of instructions simulated
sim_ops                                     100196356                       # Number of ops (including micro ops) simulated
sim_seconds                                  0.082490                       # Number of seconds simulated
sim_ticks                                 82490305500                       # Number of ticks simulated
system.cpu.committedInsts                   100000001                       # Number of instructions committed
system.cpu.committedOps                     100196356                       # Number of ops (including micro ops) committed
system.cpu.cpi                               1.649806                       # CPI: cycles per instruction
system.cpu.discardedOps                        189441                       # Number of ops (including micro ops) which were discarded before commit
system.cpu.idleCycles                        32418383                       # Total number of cycles that the object has spent stopped
system.cpu.ipc                               0.606132                       # IPC: instructions per cycle
system.cpu.numCycles                        164980611                       # number of cpu cycles simulated
system.cpu.numFetchSuspends                         0                       # Number of times Execute suspended instruction fetching
system.cpu.numWorkItemsCompleted                    0                       # number of work items this cpu completed
system.cpu.numWorkItemsStarted                      0                       # number of work items this cpu started
system.cpu.op_class_0::No_OpClass                   0      0.00%      0.00% # Class of committed instruction
system.cpu.op_class_0::IntAlu                46526863     46.44%     46.44% # Class of committed instruction
system.cpu.op_class_0::IntMult                  20723      0.02%     46.46% # Class of committed instruction
system.cpu.op_class_0::IntDiv                       0      0.00%     46.46% # Class of committed instruction
system.cpu.op_class_0::FloatAdd                     0      0.00%     46.46% # Class of committed instruction
system.cpu.op_class_0::FloatCmp                     0      0.00%     46.46% # Class of committed instruction
system.cpu.op_class_0::FloatCvt                     0      0.00%     46.46% # Class of committed instruction
system.cpu.op_class_0::FloatMult                    0      0.00%     46.46% # Class of committed instruction
system.cpu.op_class_0::FloatMultAcc                 0      0.00%     46.46% # Class of committed instruction
system.cpu.op_class_0::FloatDiv                     0      0.00%     46.46% # Class of committed instruction
system.cpu.op_class_0::FloatMisc                    0      0.00%     46.46% # Class of committed instruction
system.cpu.op_class_0::FloatSqrt                    0      0.00%     46.46% # Class of committed instruction
system.cpu.op_class_0::SimdAdd                      0      0.00%     46.46% # Class of committed instruction
system.cpu.op_class_0::SimdAddAcc                   0      0.00%     46.46% # Class of committed instruction
system.cpu.op_class_0::SimdAlu                      0      0.00%     46.46% # Class of committed instruction
system.cpu.op_class_0::SimdCmp                      0      0.00%     46.46% # Class of committed instruction
system.cpu.op_class_0::SimdCvt                      0      0.00%     46.46% # Class of committed instruction
system.cpu.op_class_0::SimdMisc                     0      0.00%     46.46% # Class of committed instruction
system.cpu.op_class_0::SimdMult                     0      0.00%     46.46% # Class of committed instruction
system.cpu.op_class_0::SimdMultAcc                  0      0.00%     46.46% # Class of committed instruction
system.cpu.op_class_0::SimdShift                    0      0.00%     46.46% # Class of committed instruction
system.cpu.op_class_0::SimdShiftAcc                 0      0.00%     46.46% # Class of committed instruction
system.cpu.op_class_0::SimdDiv                      0      0.00%     46.46% # Class of committed instruction
system.cpu.op_class_0::SimdSqrt                     0      0.00%     46.46% # Class of committed instruction
system.cpu.op_class_0::SimdFloatAdd                 0      0.00%     46.46% # Class of committed instruction
system.cpu.op_class_0::SimdFloatAlu                 0      0.00%     46.46% # Class of committed instruction
system.cpu.op_class_0::SimdFloatCmp                 0      0.00%     46.46% # Class of committed instruction
system.cpu.op_class_0::SimdFloatCvt                 0      0.00%     46.46% # Class of committed instruction
system.cpu.op_class_0::SimdFloatDiv                 0      0.00%     46.46% # Class of committed instruction
system.cpu.op_class_0::SimdFloatMisc               18      0.00%     46.46% # Class of committed instruction
system.cpu.op_class_0::SimdFloatMult                0      0.00%     46.46% # Class of committed instruction
system.cpu.op_class_0::SimdFloatMultAcc             0      0.00%     46.46% # Class of committed instruction
system.cpu.op_class_0::SimdFloatSqrt                0      0.00%     46.46% # Class of committed instruction
system.cpu.op_class_0::SimdReduceAdd                0      0.00%     46.46% # Class of committed instruction
system.cpu.op_class_0::SimdReduceAlu                0      0.00%     46.46% # Class of committed instruction
system.cpu.op_class_0::SimdReduceCmp                0      0.00%     46.46% # Class of committed instruction
system.cpu.op_class_0::SimdFloatReduceAdd            0      0.00%     46.46% # Class of committed instruction
system.cpu.op_class_0::SimdFloatReduceCmp            0      0.00%     46.46% # Class of committed instruction
system.cpu.op_class_0::SimdAes                      0      0.00%     46.46% # Class of committed instruction
system.cpu.op_class_0::SimdAesMix                   0      0.00%     46.46% # Class of committed instruction
system.cpu.op_class_0::SimdSha1Hash                 0      0.00%     46.46% # Class of committed instruction
system.cpu.op_class_0::SimdSha1Hash2                0      0.00%     46.46% # Class of committed instruction
system.cpu.op_class_0::SimdSha256Hash               0      0.00%     46.46% # Class of committed instruction
system.cpu.op_class_0::SimdSha256Hash2              0      0.00%     46.46% # Class of committed instruction
system.cpu.op_class_0::SimdShaSigma2                0      0.00%     46.46% # Class of committed instruction
system.cpu.op_class_0::SimdShaSigma3                0      0.00%     46.46% # Class of committed instruction
system.cpu.op_class_0::SimdPredAlu                  0      0.00%     46.46% # Class of committed instruction
system.cpu.op_class_0::MemRead               42690537     42.61%     89.06% # Class of committed instruction
system.cpu.op_class_0::MemWrite              10958215     10.94%    100.00% # Class of committed instruction
system.cpu.op_class_0::FloatMemRead                 0      0.00%    100.00% # Class of committed instruction
system.cpu.op_class_0::FloatMemWrite                0      0.00%    100.00% # Class of committed instruction
system.cpu.op_class_0::IprAccess                    0      0.00%    100.00% # Class of committed instruction
system.cpu.op_class_0::InstPrefetch                 0      0.00%    100.00% # Class of committed instruction
system.cpu.op_class_0::total                100196356                       # Class of committed instruction
system.cpu.tickCycles                       132562228                       # Number of cycles that the object actually ticked
system.cpu.workload.numSyscalls                    85                       # Number of system calls
system.membus.snoop_filter.hit_multi_requests            0                       # Number of requests hitting in the snoop filter with multiple (>1) holders of the requested data.
system.membus.snoop_filter.hit_multi_snoops            0                       # Number of snoops hitting in the snoop filter with multiple (>1) holders of the requested data.
system.membus.snoop_filter.hit_single_requests       168707                       # Number of requests hitting in the snoop filter with a single holder of the requested data.
system.membus.snoop_filter.hit_single_snoops            0                       # Number of snoops hitting in the snoop filter with a single holder of the requested data.
system.membus.snoop_filter.tot_requests        370513                       # Total number of requests made to the snoop filter.
system.membus.snoop_filter.tot_snoops               0                       # Total number of snoops made to the snoop filter.
system.tol2bus.snoop_filter.hit_multi_requests           59                       # Number of requests hitting in the snoop filter with multiple (>1) holders of the requested data.
system.tol2bus.snoop_filter.hit_multi_snoops            0                       # Number of snoops hitting in the snoop filter with multiple (>1) holders of the requested data.
system.tol2bus.snoop_filter.hit_single_requests       563053                       # Number of requests hitting in the snoop filter with a single holder of the requested data.
system.tol2bus.snoop_filter.hit_single_snoops          477                       # Number of snoops hitting in the snoop filter with a single holder of the requested data.
system.tol2bus.snoop_filter.tot_requests      1127566                       # Total number of requests made to the snoop filter.
system.tol2bus.snoop_filter.tot_snoops            477                       # Total number of snoops made to the snoop filter.
system.clk_domain.clock                          1000                       # Clock period in ticks
system.cpu.branchPred.lookups                 4485842                       # Number of BP lookups
system.cpu.branchPred.condPredicted           3735533                       # Number of conditional branches predicted
system.cpu.branchPred.condIncorrect             81005                       # Number of conditional branches incorrect
system.cpu.branchPred.BTBLookups              2103808                       # Number of BTB lookups
system.cpu.branchPred.BTBHits                 2101804                       # Number of BTB hits
system.cpu.branchPred.BTBHitPct             99.904744                       # BTB Hit Percentage
system.cpu.branchPred.RASUsed                   65379                       # Number of times the RAS was used to get a target.
system.cpu.branchPred.RASIncorrect                 14                       # Number of incorrect RAS predictions.
system.cpu.branchPred.indirectLookups             692                       # Number of indirect predictor lookups.
system.cpu.branchPred.indirectHits                288                       # Number of indirect target hits.
system.cpu.branchPred.indirectMisses              404                       # Number of indirect misses.
system.cpu.branchPred.indirectMispredicted          171                       # Number of mispredicted indirect branches.
system.cpu.dcache.demand_hits::.cpu.data     51445224                       # number of demand (read+write) hits
system.cpu.dcache.demand_hits::total         51445224                       # number of demand (read+write) hits
system.cpu.dcache.overall_hits::.cpu.data     51445734                       # number of overall hits
system.cpu.dcache.overall_hits::total        51445734                       # number of overall hits
system.cpu.dcache.demand_misses::.cpu.data       618248                       # number of demand (read+write) misses
system.cpu.dcache.demand_misses::total         618248                       # number of demand (read+write) misses
system.cpu.dcache.overall_misses::.cpu.data       626157                       # number of overall misses
system.cpu.dcache.overall_misses::total        626157                       # number of overall misses
system.cpu.dcache.demand_miss_latency::.cpu.data  23121332000                       # number of demand (read+write) miss cycles
system.cpu.dcache.demand_miss_latency::total  23121332000                       # number of demand (read+write) miss cycles
system.cpu.dcache.overall_miss_latency::.cpu.data  23121332000                       # number of overall miss cycles
system.cpu.dcache.overall_miss_latency::total  23121332000                       # number of overall miss cycles
system.cpu.dcache.demand_accesses::.cpu.data     52063472                       # number of demand (read+write) accesses
system.cpu.dcache.demand_accesses::total     52063472                       # number of demand (read+write) accesses
system.cpu.dcache.overall_accesses::.cpu.data     52071891                       # number of overall (read+write) accesses
system.cpu.dcache.overall_accesses::total     52071891                       # number of overall (read+write) accesses
system.cpu.dcache.demand_miss_rate::.cpu.data     0.011875                       # miss rate for demand accesses
system.cpu.dcache.demand_miss_rate::total     0.011875                       # miss rate for demand accesses
system.cpu.dcache.overall_miss_rate::.cpu.data     0.012025                       # miss rate for overall accesses
system.cpu.dcache.overall_miss_rate::total     0.012025                       # miss rate for overall accesses
system.cpu.dcache.demand_avg_miss_latency::.cpu.data 37398.150904                       # average overall miss latency
system.cpu.dcache.demand_avg_miss_latency::total 37398.150904                       # average overall miss latency
system.cpu.dcache.overall_avg_miss_latency::.cpu.data 36925.774207                       # average overall miss latency
system.cpu.dcache.overall_avg_miss_latency::total 36925.774207                       # average overall miss latency
system.cpu.dcache.blocked_cycles::no_mshrs       213736                       # number of cycles access was blocked
system.cpu.dcache.blocked_cycles::no_targets            0                       # number of cycles access was blocked
system.cpu.dcache.blocked::no_mshrs              3245                       # number of cycles access was blocked
system.cpu.dcache.blocked::no_targets               0                       # number of cycles access was blocked
system.cpu.dcache.avg_blocked_cycles::no_mshrs    65.866256                       # average number of cycles each access was blocked
system.cpu.dcache.avg_blocked_cycles::no_targets          nan                       # average number of cycles each access was blocked
system.cpu.dcache.writebacks::.writebacks       488024                       # number of writebacks
system.cpu.dcache.writebacks::total            488024                       # number of writebacks
system.cpu.dcache.demand_mshr_hits::.cpu.data        62411                       # number of demand (read+write) MSHR hits
system.cpu.dcache.demand_mshr_hits::total        62411                       # number of demand (read+write) MSHR hits
system.cpu.dcache.overall_mshr_hits::.cpu.data        62411                       # number of overall MSHR hits
system.cpu.dcache.overall_mshr_hits::total        62411                       # number of overall MSHR hits
system.cpu.dcache.demand_mshr_misses::.cpu.data       555837                       # number of demand (read+write) MSHR misses
system.cpu.dcache.demand_mshr_misses::total       555837                       # number of demand (read+write) MSHR misses
system.cpu.dcache.overall_mshr_misses::.cpu.data       563742                       # number of overall MSHR misses
system.cpu.dcache.overall_mshr_misses::total       563742                       # number of overall MSHR misses
system.cpu.dcache.demand_mshr_miss_latency::.cpu.data  20952846500                       # number of demand (read+write) MSHR miss cycles
system.cpu.dcache.demand_mshr_miss_latency::total  20952846500                       # number of demand (read+write) MSHR miss cycles
system.cpu.dcache.overall_mshr_miss_latency::.cpu.data  21646906499                       # number of overall MSHR miss cycles
system.cpu.dcache.overall_mshr_miss_latency::total  21646906499                       # number of overall MSHR miss cycles
system.cpu.dcache.demand_mshr_miss_rate::.cpu.data     0.010676                       # mshr miss rate for demand accesses
system.cpu.dcache.demand_mshr_miss_rate::total     0.010676                       # mshr miss rate for demand accesses
system.cpu.dcache.overall_mshr_miss_rate::.cpu.data     0.010826                       # mshr miss rate for overall accesses
system.cpu.dcache.overall_mshr_miss_rate::total     0.010826                       # mshr miss rate for overall accesses
system.cpu.dcache.demand_avg_mshr_miss_latency::.cpu.data 37696.026893                       # average overall mshr miss latency
system.cpu.dcache.demand_avg_mshr_miss_latency::total 37696.026893                       # average overall mshr miss latency
system.cpu.dcache.overall_avg_mshr_miss_latency::.cpu.data 38398.605211                       # average overall mshr miss latency
system.cpu.dcache.overall_avg_mshr_miss_latency::total 38398.605211                       # average overall mshr miss latency
system.cpu.dcache.replacements                 562718                       # number of replacements
system.cpu.dcache.ReadReq_hits::.cpu.data     40820366                       # number of ReadReq hits
system.cpu.dcache.ReadReq_hits::total        40820366                       # number of ReadReq hits
system.cpu.dcache.ReadReq_misses::.cpu.data       294024                       # number of ReadReq misses
system.cpu.dcache.ReadReq_misses::total        294024                       # number of ReadReq misses
system.cpu.dcache.ReadReq_miss_latency::.cpu.data   7768906000                       # number of ReadReq miss cycles
system.cpu.dcache.ReadReq_miss_latency::total   7768906000                       # number of ReadReq miss cycles
system.cpu.dcache.ReadReq_accesses::.cpu.data     41114390                       # number of ReadReq accesses(hits+misses)
system.cpu.dcache.ReadReq_accesses::total     41114390                       # number of ReadReq accesses(hits+misses)
system.cpu.dcache.ReadReq_miss_rate::.cpu.data     0.007151                       # miss rate for ReadReq accesses
system.cpu.dcache.ReadReq_miss_rate::total     0.007151                       # miss rate for ReadReq accesses
system.cpu.dcache.ReadReq_avg_miss_latency::.cpu.data 26422.693386                       # average ReadReq miss latency
system.cpu.dcache.ReadReq_avg_miss_latency::total 26422.693386                       # average ReadReq miss latency
system.cpu.dcache.ReadReq_mshr_hits::.cpu.data          581                       # number of ReadReq MSHR hits
system.cpu.dcache.ReadReq_mshr_hits::total          581                       # number of ReadReq MSHR hits
system.cpu.dcache.ReadReq_mshr_misses::.cpu.data       293443                       # number of ReadReq MSHR misses
system.cpu.dcache.ReadReq_mshr_misses::total       293443                       # number of ReadReq MSHR misses
system.cpu.dcache.ReadReq_mshr_miss_latency::.cpu.data   7450318500                       # number of ReadReq MSHR miss cycles
system.cpu.dcache.ReadReq_mshr_miss_latency::total   7450318500                       # number of ReadReq MSHR miss cycles
system.cpu.dcache.ReadReq_mshr_miss_rate::.cpu.data     0.007137                       # mshr miss rate for ReadReq accesses
system.cpu.dcache.ReadReq_mshr_miss_rate::total     0.007137                       # mshr miss rate for ReadReq accesses
system.cpu.dcache.ReadReq_avg_mshr_miss_latency::.cpu.data 25389.320924                       # average ReadReq mshr miss latency
system.cpu.dcache.ReadReq_avg_mshr_miss_latency::total 25389.320924                       # average ReadReq mshr miss latency
system.cpu.dcache.WriteReq_hits::.cpu.data     10624858                       # number of WriteReq hits
system.cpu.dcache.WriteReq_hits::total       10624858                       # number of WriteReq hits
system.cpu.dcache.WriteReq_misses::.cpu.data       324224                       # number of WriteReq misses
system.cpu.dcache.WriteReq_misses::total       324224                       # number of WriteReq misses
system.cpu.dcache.WriteReq_miss_latency::.cpu.data  15352426000                       # number of WriteReq miss cycles
system.cpu.dcache.WriteReq_miss_latency::total  15352426000                       # number of WriteReq miss cycles
system.cpu.dcache.WriteReq_accesses::.cpu.data     10949082                       # number of WriteReq accesses(hits+misses)
system.cpu.dcache.WriteReq_accesses::total     10949082                       # number of WriteReq accesses(hits+misses)
system.cpu.dcache.WriteReq_miss_rate::.cpu.data     0.029612                       # miss rate for WriteReq accesses
system.cpu.dcache.WriteReq_miss_rate::total     0.029612                       # miss rate for WriteReq accesses
system.cpu.dcache.WriteReq_avg_miss_latency::.cpu.data 47351.294167                       # average WriteReq miss latency
system.cpu.dcache.WriteReq_avg_miss_latency::total 47351.294167                       # average WriteReq miss latency
system.cpu.dcache.WriteReq_mshr_hits::.cpu.data        61830                       # number of WriteReq MSHR hits
system.cpu.dcache.WriteReq_mshr_hits::total        61830                       # number of WriteReq MSHR hits
system.cpu.dcache.WriteReq_mshr_misses::.cpu.data       262394                       # number of WriteReq MSHR misses
system.cpu.dcache.WriteReq_mshr_misses::total       262394                       # number of WriteReq MSHR misses
system.cpu.dcache.WriteReq_mshr_miss_latency::.cpu.data  13502528000                       # number of WriteReq MSHR miss cycles
system.cpu.dcache.WriteReq_mshr_miss_latency::total  13502528000                       # number of WriteReq MSHR miss cycles
system.cpu.dcache.WriteReq_mshr_miss_rate::.cpu.data     0.023965                       # mshr miss rate for WriteReq accesses
system.cpu.dcache.WriteReq_mshr_miss_rate::total     0.023965                       # mshr miss rate for WriteReq accesses
system.cpu.dcache.WriteReq_avg_mshr_miss_latency::.cpu.data 51458.981532                       # average WriteReq mshr miss latency
system.cpu.dcache.WriteReq_avg_mshr_miss_latency::total 51458.981532                       # average WriteReq mshr miss latency
system.cpu.dcache.SoftPFReq_hits::.cpu.data          510                       # number of SoftPFReq hits
system.cpu.dcache.SoftPFReq_hits::total           510                       # number of SoftPFReq hits
system.cpu.dcache.SoftPFReq_misses::.cpu.data         7909                       # number of SoftPFReq misses
system.cpu.dcache.SoftPFReq_misses::total         7909                       # number of SoftPFReq misses
system.cpu.dcache.SoftPFReq_accesses::.cpu.data         8419                       # number of SoftPFReq accesses(hits+misses)
system.cpu.dcache.SoftPFReq_accesses::total         8419                       # number of SoftPFReq accesses(hits+misses)
system.cpu.dcache.SoftPFReq_miss_rate::.cpu.data     0.939423                       # miss rate for SoftPFReq accesses
system.cpu.dcache.SoftPFReq_miss_rate::total     0.939423                       # miss rate for SoftPFReq accesses
system.cpu.dcache.SoftPFReq_mshr_misses::.cpu.data         7905                       # number of SoftPFReq MSHR misses
system.cpu.dcache.SoftPFReq_mshr_misses::total         7905                       # number of SoftPFReq MSHR misses
system.cpu.dcache.SoftPFReq_mshr_miss_latency::.cpu.data    694059999                       # number of SoftPFReq MSHR miss cycles
system.cpu.dcache.SoftPFReq_mshr_miss_latency::total    694059999                       # number of SoftPFReq MSHR miss cycles
system.cpu.dcache.SoftPFReq_mshr_miss_rate::.cpu.data     0.938948                       # mshr miss rate for SoftPFReq accesses
system.cpu.dcache.SoftPFReq_mshr_miss_rate::total     0.938948                       # mshr miss rate for SoftPFReq accesses
system.cpu.dcache.SoftPFReq_avg_mshr_miss_latency::.cpu.data 87800.126376                       # average SoftPFReq mshr miss latency
system.cpu.dcache.SoftPFReq_avg_mshr_miss_latency::total 87800.126376                       # average SoftPFReq mshr miss latency
system.cpu.dcache.LoadLockedReq_hits::.cpu.data           38                       # number of LoadLockedReq hits
system.cpu.dcache.LoadLockedReq_hits::total           38                       # number of LoadLockedReq hits
system.cpu.dcache.LoadLockedReq_accesses::.cpu.data           38                       # number of LoadLockedReq accesses(hits+misses)
system.cpu.dcache.LoadLockedReq_accesses::total           38                       # number of LoadLockedReq accesses(hits+misses)
system.cpu.dcache.StoreCondReq_hits::.cpu.data           38                       # number of StoreCondReq hits
system.cpu.dcache.StoreCondReq_hits::total           38                       # number of StoreCondReq hits
system.cpu.dcache.StoreCondReq_accesses::.cpu.data           38                       # number of StoreCondReq accesses(hits+misses)
system.cpu.dcache.StoreCondReq_accesses::total           38                       # number of StoreCondReq accesses(hits+misses)
system.cpu.dcache.power_state.pwrStateResidencyTicks::UNDEFINED  82490305500                       # Cumulative time (in ticks) in various power states
system.cpu.dcache.tags.tagsinuse          1007.669014                       # Cycle average of tags in use
system.cpu.dcache.tags.total_refs            52009552                       # Total number of references to valid blocks.
system.cpu.dcache.tags.sampled_refs            563742                       # Sample count of references to valid blocks.
system.cpu.dcache.tags.avg_refs             92.257721                       # Average number of references to valid blocks.
system.cpu.dcache.tags.warmup_cycle            176500                       # Cycle when the warmup percentage was hit.
system.cpu.dcache.tags.occ_blocks::.cpu.data  1007.669014                       # Average occupied blocks per requestor
system.cpu.dcache.tags.occ_percent::.cpu.data     0.984052                       # Average percentage of cache occupancy
system.cpu.dcache.tags.occ_percent::total     0.984052                       # Average percentage of cache occupancy
system.cpu.dcache.tags.occ_task_id_blocks::1024         1024                       # Occupied blocks per task id
system.cpu.dcache.tags.age_task_id_blocks_1024::0           84                       # Occupied blocks per task id
system.cpu.dcache.tags.age_task_id_blocks_1024::1          585                       # Occupied blocks per task id
system.cpu.dcache.tags.age_task_id_blocks_1024::2          329                       # Occupied blocks per task id
system.cpu.dcache.tags.age_task_id_blocks_1024::3           24                       # Occupied blocks per task id
system.cpu.dcache.tags.age_task_id_blocks_1024::4            2                       # Occupied blocks per task id
system.cpu.dcache.tags.occ_task_id_percent::1024            1                       # Percentage of cache occupancy per task id
system.cpu.dcache.tags.tag_accesses        1666866686                       # Number of tag accesses
system.cpu.dcache.tags.data_accesses       1666866686                       # Number of data accesses
system.cpu.dcache.tags.power_state.pwrStateResidencyTicks::UNDEFINED  82490305500                       # Cumulative time (in ticks) in various power states
system.cpu.dtb.instHits                             0                       # ITB inst hits
system.cpu.dtb.instMisses                           0                       # ITB inst misses
system.cpu.dtb.readHits                             0                       # DTB read hits
system.cpu.dtb.readMisses                           0                       # DTB read misses
system.cpu.dtb.writeHits                            0                       # DTB write hits
system.cpu.dtb.writeMisses                          0                       # DTB write misses
system.cpu.dtb.inserts                              0                       # Number of times an entry is inserted into the TLB
system.cpu.dtb.flushTlb                             0                       # Number of times complete TLB was flushed
system.cpu.dtb.flushTlbMva                          0                       # Number of times TLB was flushed by MVA
system.cpu.dtb.flushTlbMvaAsid                      0                       # Number of times TLB was flushed by MVA & ASID
system.cpu.dtb.flushTlbAsid                         0                       # Number of times TLB was flushed by ASID
system.cpu.dtb.flushedEntries                       0                       # Number of entries that have been flushed from TLB
system.cpu.dtb.alignFaults                          0                       # Number of TLB faults due to alignment restrictions
system.cpu.dtb.prefetchFaults                       0                       # Number of TLB faults due to prefetch
system.cpu.dtb.domainFaults                         0                       # Number of TLB faults due to domain restrictions
system.cpu.dtb.permsFaults                          0                       # Number of TLB faults due to permissions restrictions
system.cpu.dtb.readAccesses                         0                       # DTB read accesses
system.cpu.dtb.writeAccesses                        0                       # DTB write accesses
system.cpu.dtb.instAccesses                         0                       # ITB inst accesses
system.cpu.dtb.hits                                 0                       # Total TLB (inst and data) hits
system.cpu.dtb.misses                               0                       # Total TLB (inst and data) misses
system.cpu.dtb.accesses                             0                       # Total TLB (inst and data) accesses
system.cpu.dtb.stage2_mmu.stage2_tlb.instHits            0                       # ITB inst hits
system.cpu.dtb.stage2_mmu.stage2_tlb.instMisses            0                       # ITB inst misses
system.cpu.dtb.stage2_mmu.stage2_tlb.readHits            0                       # DTB read hits
system.cpu.dtb.stage2_mmu.stage2_tlb.readMisses            0                       # DTB read misses
system.cpu.dtb.stage2_mmu.stage2_tlb.writeHits            0                       # DTB write hits
system.cpu.dtb.stage2_mmu.stage2_tlb.writeMisses            0                       # DTB write misses
system.cpu.dtb.stage2_mmu.stage2_tlb.inserts            0                       # Number of times an entry is inserted into the TLB
system.cpu.dtb.stage2_mmu.stage2_tlb.flushTlb            0                       # Number of times complete TLB was flushed
system.cpu.dtb.stage2_mmu.stage2_tlb.flushTlbMva            0                       # Number of times TLB was flushed by MVA
system.cpu.dtb.stage2_mmu.stage2_tlb.flushTlbMvaAsid            0                       # Number of times TLB was flushed by MVA & ASID
system.cpu.dtb.stage2_mmu.stage2_tlb.flushTlbAsid            0                       # Number of times TLB was flushed by ASID
system.cpu.dtb.stage2_mmu.stage2_tlb.flushedEntries            0                       # Number of entries that have been flushed from TLB
system.cpu.dtb.stage2_mmu.stage2_tlb.alignFaults            0                       # Number of TLB faults due to alignment restrictions
system.cpu.dtb.stage2_mmu.stage2_tlb.prefetchFaults            0                       # Number of TLB faults due to prefetch
system.cpu.dtb.stage2_mmu.stage2_tlb.domainFaults            0                       # Number of TLB faults due to domain restrictions
system.cpu.dtb.stage2_mmu.stage2_tlb.permsFaults            0                       # Number of TLB faults due to permissions restrictions
system.cpu.dtb.stage2_mmu.stage2_tlb.readAccesses            0                       # DTB read accesses
system.cpu.dtb.stage2_mmu.stage2_tlb.writeAccesses            0                       # DTB write accesses
system.cpu.dtb.stage2_mmu.stage2_tlb.instAccesses            0                       # ITB inst accesses
system.cpu.dtb.stage2_mmu.stage2_tlb.hits            0                       # Total TLB (inst and data) hits
system.cpu.dtb.stage2_mmu.stage2_tlb.misses            0                       # Total TLB (inst and data) misses
system.cpu.dtb.stage2_mmu.stage2_tlb.accesses            0                       # Total TLB (inst and data) accesses
system.cpu.dtb.stage2_mmu.stage2_tlb.walker.walks            0                       # Table walker walks requested
system.cpu.dtb.stage2_mmu.stage2_tlb.walker.requestOrigin_Requested::Data            0                       # Table walker requests started/completed, data/inst
system.cpu.dtb.stage2_mmu.stage2_tlb.walker.requestOrigin_Requested::Inst            0                       # Table walker requests started/completed, data/inst
system.cpu.dtb.stage2_mmu.stage2_tlb.walker.requestOrigin_Requested::total            0                       # Table walker requests started/completed, data/inst
system.cpu.dtb.stage2_mmu.stage2_tlb.walker.requestOrigin_Completed::Data            0                       # Table walker requests started/completed, data/inst
system.cpu.dtb.stage2_mmu.stage2_tlb.walker.requestOrigin_Completed::Inst            0                       # Table walker requests started/completed, data/inst
system.cpu.dtb.stage2_mmu.stage2_tlb.walker.requestOrigin_Completed::total            0                       # Table walker requests started/completed, data/inst
system.cpu.dtb.stage2_mmu.stage2_tlb.walker.requestOrigin::total            0                       # Table walker requests started/completed, data/inst
system.cpu.dtb.stage2_mmu.stage2_tlb.walker.power_state.pwrStateResidencyTicks::UNDEFINED  82490305500                       # Cumulative time (in ticks) in various power states
system.cpu.dtb.walker.walks                         0                       # Table walker walks requested
system.cpu.dtb.walker.requestOrigin_Requested::Data            0                       # Table walker requests started/completed, data/inst
system.cpu.dtb.walker.requestOrigin_Requested::Inst            0                       # Table walker requests started/completed, data/inst
system.cpu.dtb.walker.requestOrigin_Requested::total            0                       # Table walker requests started/completed, data/inst
system.cpu.dtb.walker.requestOrigin_Completed::Data            0                       # Table walker requests started/completed, data/inst
system.cpu.dtb.walker.requestOrigin_Completed::Inst            0                       # Table walker requests started/completed, data/inst
system.cpu.dtb.walker.requestOrigin_Completed::total            0                       # Table walker requests started/completed, data/inst
system.cpu.dtb.walker.requestOrigin::total            0                       # Table walker requests started/completed, data/inst
system.cpu.dtb.walker.power_state.pwrStateResidencyTicks::UNDEFINED  82490305500                       # Cumulative time (in ticks) in various power states
system.cpu.fetch2.intInstructions            42685870                       # Number of integer instructions successfully decoded
system.cpu.fetch2.fpInstructions                    0                       # Number of floating point instructions successfully decoded
system.cpu.fetch2.vecInstructions                   0                       # Number of SIMD instructions successfully decoded
system.cpu.fetch2.loadInstructions           43474998                       # Number of memory load instructions successfully decoded
system.cpu.fetch2.storeInstructions          11024865                       # Number of memory store instructions successfully decoded
system.cpu.fetch2.amoInstructions                   0                       # Number of memory atomic instructions successfully decoded
system.cpu.icache.demand_hits::.cpu.inst     10277843                       # number of demand (read+write) hits
system.cpu.icache.demand_hits::total         10277843                       # number of demand (read+write) hits
system.cpu.icache.overall_hits::.cpu.inst     10277843                       # number of overall hits
system.cpu.icache.overall_hits::total        10277843                       # number of overall hits
system.cpu.icache.demand_misses::.cpu.inst          773                       # number of demand (read+write) misses
system.cpu.icache.demand_misses::total            773                       # number of demand (read+write) misses
system.cpu.icache.overall_misses::.cpu.inst          773                       # number of overall misses
system.cpu.icache.overall_misses::total           773                       # number of overall misses
system.cpu.icache.demand_miss_latency::.cpu.inst     55253000                       # number of demand (read+write) miss cycles
system.cpu.icache.demand_miss_latency::total     55253000                       # number of demand (read+write) miss cycles
system.cpu.icache.overall_miss_latency::.cpu.inst     55253000                       # number of overall miss cycles
system.cpu.icache.overall_miss_latency::total     55253000                       # number of overall miss cycles
system.cpu.icache.demand_accesses::.cpu.inst     10278616                       # number of demand (read+write) accesses
system.cpu.icache.demand_accesses::total     10278616                       # number of demand (read+write) accesses
system.cpu.icache.overall_accesses::.cpu.inst     10278616                       # number of overall (read+write) accesses
system.cpu.icache.overall_accesses::total     10278616                       # number of overall (read+write) accesses
system.cpu.icache.demand_miss_rate::.cpu.inst     0.000075                       # miss rate for demand accesses
system.cpu.icache.demand_miss_rate::total     0.000075                       # miss rate for demand accesses
system.cpu.icache.overall_miss_rate::.cpu.inst     0.000075                       # miss rate for overall accesses
system.cpu.icache.overall_miss_rate::total     0.000075                       # miss rate for overall accesses
system.cpu.icache.demand_avg_miss_latency::.cpu.inst 71478.654592                       # average overall miss latency
system.cpu.icache.demand_avg_miss_latency::total 71478.654592                       # average overall miss latency
system.cpu.icache.overall_avg_miss_latency::.cpu.inst 71478.654592                       # average overall miss latency
system.cpu.icache.overall_avg_miss_latency::total 71478.654592                       # average overall miss latency
system.cpu.icache.blocked_cycles::no_mshrs            0                       # number of cycles access was blocked
system.cpu.icache.blocked_cycles::no_targets            0                       # number of cycles access was blocked
system.cpu.icache.blocked::no_mshrs                 0                       # number of cycles access was blocked
system.cpu.icache.blocked::no_targets               0                       # number of cycles access was blocked
system.cpu.icache.avg_blocked_cycles::no_mshrs          nan                       # average number of cycles each access was blocked
system.cpu.icache.avg_blocked_cycles::no_targets          nan                       # average number of cycles each access was blocked
system.cpu.icache.writebacks::.writebacks          333                       # number of writebacks
system.cpu.icache.writebacks::total               333                       # number of writebacks
system.cpu.icache.demand_mshr_misses::.cpu.inst          773                       # number of demand (read+write) MSHR misses
system.cpu.icache.demand_mshr_misses::total          773                       # number of demand (read+write) MSHR misses
system.cpu.icache.overall_mshr_misses::.cpu.inst          773                       # number of overall MSHR misses
system.cpu.icache.overall_mshr_misses::total          773                       # number of overall MSHR misses
system.cpu.icache.demand_mshr_miss_latency::.cpu.inst     54480000                       # number of demand (read+write) MSHR miss cycles
system.cpu.icache.demand_mshr_miss_latency::total     54480000                       # number of demand (read+write) MSHR miss cycles
system.cpu.icache.overall_mshr_miss_latency::.cpu.inst     54480000                       # number of overall MSHR miss cycles
system.cpu.icache.overall_mshr_miss_latency::total     54480000                       # number of overall MSHR miss cycles
system.cpu.icache.demand_mshr_miss_rate::.cpu.inst     0.000075                       # mshr miss rate for demand accesses
system.cpu.icache.demand_mshr_miss_rate::total     0.000075                       # mshr miss rate for demand accesses
system.cpu.icache.overall_mshr_miss_rate::.cpu.inst     0.000075                       # mshr miss rate for overall accesses
system.cpu.icache.overall_mshr_miss_rate::total     0.000075                       # mshr miss rate for overall accesses
system.cpu.icache.demand_avg_mshr_miss_latency::.cpu.inst 70478.654592                       # average overall mshr miss latency
system.cpu.icache.demand_avg_mshr_miss_latency::total 70478.654592                       # average overall mshr miss latency
system.cpu.icache.overall_avg_mshr_miss_latency::.cpu.inst 70478.654592                       # average overall mshr miss latency
system.cpu.icache.overall_avg_mshr_miss_latency::total 70478.654592                       # average overall mshr miss latency
system.cpu.icache.replacements                    333                       # number of replacements
system.cpu.icache.ReadReq_hits::.cpu.inst     10277843                       # number of ReadReq hits
system.cpu.icache.ReadReq_hits::total        10277843                       # number of ReadReq hits
system.cpu.icache.ReadReq_misses::.cpu.inst          773                       # number of ReadReq misses
system.cpu.icache.ReadReq_misses::total           773                       # number of ReadReq misses
system.cpu.icache.ReadReq_miss_latency::.cpu.inst     55253000                       # number of ReadReq miss cycles
system.cpu.icache.ReadReq_miss_latency::total     55253000                       # number of ReadReq miss cycles
system.cpu.icache.ReadReq_accesses::.cpu.inst     10278616                       # number of ReadReq accesses(hits+misses)
system.cpu.icache.ReadReq_accesses::total     10278616                       # number of ReadReq accesses(hits+misses)
system.cpu.icache.ReadReq_miss_rate::.cpu.inst     0.000075                       # miss rate for ReadReq accesses
system.cpu.icache.ReadReq_miss_rate::total     0.000075                       # miss rate for ReadReq accesses
system.cpu.icache.ReadReq_avg_miss_latency::.cpu.inst 71478.654592                       # average ReadReq miss latency
system.cpu.icache.ReadReq_avg_miss_latency::total 71478.654592                       # average ReadReq miss latency
system.cpu.icache.ReadReq_mshr_misses::.cpu.inst          773                       # number of ReadReq MSHR misses
system.cpu.icache.ReadReq_mshr_misses::total          773                       # number of ReadReq MSHR misses
system.cpu.icache.ReadReq_mshr_miss_latency::.cpu.inst     54480000                       # number of ReadReq MSHR miss cycles
system.cpu.icache.ReadReq_mshr_miss_latency::total     54480000                       # number of ReadReq MSHR miss cycles
system.cpu.icache.ReadReq_mshr_miss_rate::.cpu.inst     0.000075                       # mshr miss rate for ReadReq accesses
system.cpu.icache.ReadReq_mshr_miss_rate::total     0.000075                       # mshr miss rate for ReadReq accesses
system.cpu.icache.ReadReq_avg_mshr_miss_latency::.cpu.inst 70478.654592                       # average ReadReq mshr miss latency
system.cpu.icache.ReadReq_avg_mshr_miss_latency::total 70478.654592                       # average ReadReq mshr miss latency
system.cpu.icache.power_state.pwrStateResidencyTicks::UNDEFINED  82490305500                       # Cumulative time (in ticks) in various power states
system.cpu.icache.tags.tagsinuse           355.637311                       # Cycle average of tags in use
system.cpu.icache.tags.total_refs            10278616                       # Total number of references to valid blocks.
system.cpu.icache.tags.sampled_refs               773                       # Sample count of references to valid blocks.
system.cpu.icache.tags.avg_refs          13297.045278                       # Average number of references to valid blocks.
system.cpu.icache.tags.warmup_cycle             87500                       # Cycle when the warmup percentage was hit.
system.cpu.icache.tags.occ_blocks::.cpu.inst   355.637311                       # Average occupied blocks per requestor
system.cpu.icache.tags.occ_percent::.cpu.inst     0.694604                       # Average percentage of cache occupancy
system.cpu.icache.tags.occ_percent::total     0.694604                       # Average percentage of cache occupancy
system.cpu.icache.tags.occ_task_id_blocks::1024          440                       # Occupied blocks per task id
system.cpu.icache.tags.age_task_id_blocks_1024::3          107                       # Occupied blocks per task id
system.cpu.icache.tags.age_task_id_blocks_1024::4          333                       # Occupied blocks per task id
system.cpu.icache.tags.occ_task_id_percent::1024     0.859375                       # Percentage of cache occupancy per task id
system.cpu.icache.tags.tag_accesses          20558005                       # Number of tag accesses
system.cpu.icache.tags.data_accesses         20558005                       # Number of data accesses
system.cpu.icache.tags.power_state.pwrStateResidencyTicks::UNDEFINED  82490305500                       # Cumulative time (in ticks) in various power states
system.cpu.itb.instHits                             0                       # ITB inst hits
system.cpu.itb.instMisses                           0                       # ITB inst misses
system.cpu.itb.readHits                             0                       # DTB read hits
system.cpu.itb.readMisses                           0                       # DTB read misses
system.cpu.itb.writeHits                            0                       # DTB write hits
system.cpu.itb.writeMisses                          0                       # DTB write misses
system.cpu.itb.inserts                              0                       # Number of times an entry is inserted into the TLB
system.cpu.itb.flushTlb                             0                       # Number of times complete TLB was flushed
system.cpu.itb.flushTlbMva                          0                       # Number of times TLB was flushed by MVA
system.cpu.itb.flushTlbMvaAsid                      0                       # Number of times TLB was flushed by MVA & ASID
system.cpu.itb.flushTlbAsid                         0                       # Number of times TLB was flushed by ASID
system.cpu.itb.flushedEntries                       0                       # Number of entries that have been flushed from TLB
system.cpu.itb.alignFaults                          0                       # Number of TLB faults due to alignment restrictions
system.cpu.itb.prefetchFaults                       0                       # Number of TLB faults due to prefetch
system.cpu.itb.domainFaults                         0                       # Number of TLB faults due to domain restrictions
system.cpu.itb.permsFaults                          0                       # Number of TLB faults due to permissions restrictions
system.cpu.itb.readAccesses                         0                       # DTB read accesses
system.cpu.itb.writeAccesses                        0                       # DTB write accesses
system.cpu.itb.instAccesses                         0                       # ITB inst accesses
system.cpu.itb.hits                                 0                       # Total TLB (inst and data) hits
system.cpu.itb.misses                               0                       # Total TLB (inst and data) misses
system.cpu.itb.accesses                             0                       # Total TLB (inst and data) accesses
system.cpu.itb.stage2_mmu.stage2_tlb.instHits            0                       # ITB inst hits
system.cpu.itb.stage2_mmu.stage2_tlb.instMisses            0                       # ITB inst misses
system.cpu.itb.stage2_mmu.stage2_tlb.readHits            0                       # DTB read hits
system.cpu.itb.stage2_mmu.stage2_tlb.readMisses            0                       # DTB read misses
system.cpu.itb.stage2_mmu.stage2_tlb.writeHits            0                       # DTB write hits
system.cpu.itb.stage2_mmu.stage2_tlb.writeMisses            0                       # DTB write misses
system.cpu.itb.stage2_mmu.stage2_tlb.inserts            0                       # Number of times an entry is inserted into the TLB
system.cpu.itb.stage2_mmu.stage2_tlb.flushTlb            0                       # Number of times complete TLB was flushed
system.cpu.itb.stage2_mmu.stage2_tlb.flushTlbMva            0                       # Number of times TLB was flushed by MVA
system.cpu.itb.stage2_mmu.stage2_tlb.flushTlbMvaAsid            0                       # Number of times TLB was flushed by MVA & ASID
system.cpu.itb.stage2_mmu.stage2_tlb.flushTlbAsid            0                       # Number of times TLB was flushed by ASID
system.cpu.itb.stage2_mmu.stage2_tlb.flushedEntries            0                       # Number of entries that have been flushed from TLB
system.cpu.itb.stage2_mmu.stage2_tlb.alignFaults            0                       # Number of TLB faults due to alignment restrictions
system.cpu.itb.stage2_mmu.stage2_tlb.prefetchFaults            0                       # Number of TLB faults due to prefetch
system.cpu.itb.stage2_mmu.stage2_tlb.domainFaults            0                       # Number of TLB faults due to domain restrictions
system.cpu.itb.stage2_mmu.stage2_tlb.permsFaults            0                       # Number of TLB faults due to permissions restrictions
system.cpu.itb.stage2_mmu.stage2_tlb.readAccesses            0                       # DTB read accesses
system.cpu.itb.stage2_mmu.stage2_tlb.writeAccesses            0                       # DTB write accesses
system.cpu.itb.stage2_mmu.stage2_tlb.instAccesses            0                       # ITB inst accesses
system.cpu.itb.stage2_mmu.stage2_tlb.hits            0                       # Total TLB (inst and data) hits
system.cpu.itb.stage2_mmu.stage2_tlb.misses            0                       # Total TLB (inst and data) misses
system.cpu.itb.stage2_mmu.stage2_tlb.accesses            0                       # Total TLB (inst and data) accesses
system.cpu.itb.stage2_mmu.stage2_tlb.walker.walks            0                       # Table walker walks requested
system.cpu.itb.stage2_mmu.stage2_tlb.walker.requestOrigin_Requested::Data            0                       # Table walker requests started/completed, data/inst
system.cpu.itb.stage2_mmu.stage2_tlb.walker.requestOrigin_Requested::Inst            0                       # Table walker requests started/completed, data/inst
system.cpu.itb.stage2_mmu.stage2_tlb.walker.requestOrigin_Requested::total            0                       # Table walker requests started/completed, data/inst
system.cpu.itb.stage2_mmu.stage2_tlb.walker.requestOrigin_Completed::Data            0                       # Table walker requests started/completed, data/inst
system.cpu.itb.stage2_mmu.stage2_tlb.walker.requestOrigin_Completed::Inst            0                       # Table walker requests started/completed, data/inst
system.cpu.itb.stage2_mmu.stage2_tlb.walker.requestOrigin_Completed::total            0                       # Table walker requests started/completed, data/inst
system.cpu.itb.stage2_mmu.stage2_tlb.walker.requestOrigin::total            0                       # Table walker requests started/completed, data/inst
system.cpu.itb.stage2_mmu.stage2_tlb.walker.power_state.pwrStateResidencyTicks::UNDEFINED  82490305500                       # Cumulative time (in ticks) in various power states
system.cpu.itb.walker.walks                         0                       # Table walker walks requested
system.cpu.itb.walker.requestOrigin_Requested::Data            0                       # Table walker requests started/completed, data/inst
system.cpu.itb.walker.requestOrigin_Requested::Inst            0                       # Table walker requests started/completed, data/inst
system.cpu.itb.walker.requestOrigin_Requested::total            0                       # Table walker requests started/completed, data/inst
system.cpu.itb.walker.requestOrigin_Completed::Data            0                       # Table walker requests started/completed, data/inst
system.cpu.itb.walker.requestOrigin_Completed::Inst            0                       # Table walker requests started/completed, data/inst
system.cpu.itb.walker.requestOrigin_Completed::total            0                       # Table walker requests started/completed, data/inst
system.cpu.itb.walker.requestOrigin::total            0                       # Table walker requests started/completed, data/inst
system.cpu.itb.walker.power_state.pwrStateResidencyTicks::UNDEFINED  82490305500                       # Cumulative time (in ticks) in various power states
system.cpu.power_state.pwrStateResidencyTicks::ON  82490305500                       # Cumulative time (in ticks) in various power states
system.cpu.thread_0.numInsts                100000001                       # Number of Instructions committed
system.cpu.thread_0.numOps                  100196356                       # Number of Ops committed
system.cpu.thread_0.numMemRefs                      0                       # Number of Memory References
system.cpu_clk_domain.clock                       500                       # Clock period in ticks
system.cpu_voltage_domain.voltage                   1                       # Voltage in Volts
system.l2.demand_hits::.cpu.inst                  102                       # number of demand (read+write) hits
system.l2.demand_hits::.cpu.data               362596                       # number of demand (read+write) hits
system.l2.demand_hits::total                   362698                       # number of demand (read+write) hits
system.l2.overall_hits::.cpu.inst                 102                       # number of overall hits
system.l2.overall_hits::.cpu.data              362596                       # number of overall hits
system.l2.overall_hits::total                  362698                       # number of overall hits
system.l2.demand_misses::.cpu.inst                671                       # number of demand (read+write) misses
system.l2.demand_misses::.cpu.data             201146                       # number of demand (read+write) misses
system.l2.demand_misses::total                 201817                       # number of demand (read+write) misses
system.l2.overall_misses::.cpu.inst               671                       # number of overall misses
system.l2.overall_misses::.cpu.data            201146                       # number of overall misses
system.l2.overall_misses::total                201817                       # number of overall misses
system.l2.demand_miss_latency::.cpu.inst     52231000                       # number of demand (read+write) miss cycles
system.l2.demand_miss_latency::.cpu.data  16991906000                       # number of demand (read+write) miss cycles
system.l2.demand_miss_latency::total      17044137000                       # number of demand (read+write) miss cycles
system.l2.overall_miss_latency::.cpu.inst     52231000                       # number of overall miss cycles
system.l2.overall_miss_latency::.cpu.data  16991906000                       # number of overall miss cycles
system.l2.overall_miss_latency::total     17044137000                       # number of overall miss cycles
system.l2.demand_accesses::.cpu.inst              773                       # number of demand (read+write) accesses
system.l2.demand_accesses::.cpu.data           563742                       # number of demand (read+write) accesses
system.l2.demand_accesses::total               564515                       # number of demand (read+write) accesses
system.l2.overall_accesses::.cpu.inst             773                       # number of overall (read+write) accesses
system.l2.overall_accesses::.cpu.data          563742                       # number of overall (read+write) accesses
system.l2.overall_accesses::total              564515                       # number of overall (read+write) accesses
system.l2.demand_miss_rate::.cpu.inst        0.868047                       # miss rate for demand accesses
system.l2.demand_miss_rate::.cpu.data        0.356805                       # miss rate for demand accesses
system.l2.demand_miss_rate::total            0.357505                       # miss rate for demand accesses
system.l2.overall_miss_rate::.cpu.inst       0.868047                       # miss rate for overall accesses
system.l2.overall_miss_rate::.cpu.data       0.356805                       # miss rate for overall accesses
system.l2.overall_miss_rate::total           0.357505                       # miss rate for overall accesses
system.l2.demand_avg_miss_latency::.cpu.inst 77840.536513                       # average overall miss latency
system.l2.demand_avg_miss_latency::.cpu.data 84475.485468                       # average overall miss latency
system.l2.demand_avg_miss_latency::total 84453.425628                       # average overall miss latency
system.l2.overall_avg_miss_latency::.cpu.inst 77840.536513                       # average overall miss latency
system.l2.overall_avg_miss_latency::.cpu.data 84475.485468                       # average overall miss latency
system.l2.overall_avg_miss_latency::total 84453.425628                       # average overall miss latency
system.l2.blocked_cycles::no_mshrs                  0                       # number of cycles access was blocked
system.l2.blocked_cycles::no_targets                0                       # number of cycles access was blocked
system.l2.blocked::no_mshrs                         0                       # number of cycles access was blocked
system.l2.blocked::no_targets                       0                       # number of cycles access was blocked
system.l2.avg_blocked_cycles::no_mshrs            nan                       # average number of cycles each access was blocked
system.l2.avg_blocked_cycles::no_targets          nan                       # average number of cycles each access was blocked
system.l2.writebacks::.writebacks              111027                       # number of writebacks
system.l2.writebacks::total                    111027                       # number of writebacks
system.l2.demand_mshr_hits::.cpu.data               6                       # number of demand (read+write) MSHR hits
system.l2.demand_mshr_hits::total                   6                       # number of demand (read+write) MSHR hits
system.l2.overall_mshr_hits::.cpu.data              6                       # number of overall MSHR hits
system.l2.overall_mshr_hits::total                  6                       # number of overall MSHR hits
system.l2.demand_mshr_misses::.cpu.inst           671                       # number of demand (read+write) MSHR misses
system.l2.demand_mshr_misses::.cpu.data        201140                       # number of demand (read+write) MSHR misses
system.l2.demand_mshr_misses::total            201811                       # number of demand (read+write) MSHR misses
system.l2.overall_mshr_misses::.cpu.inst          671                       # number of overall MSHR misses
system.l2.overall_mshr_misses::.cpu.data       201140                       # number of overall MSHR misses
system.l2.overall_mshr_misses::total           201811                       # number of overall MSHR misses
system.l2.demand_mshr_miss_latency::.cpu.inst     45521000                       # number of demand (read+write) MSHR miss cycles
system.l2.demand_mshr_miss_latency::.cpu.data  14980128500                       # number of demand (read+write) MSHR miss cycles
system.l2.demand_mshr_miss_latency::total  15025649500                       # number of demand (read+write) MSHR miss cycles
system.l2.overall_mshr_miss_latency::.cpu.inst     45521000                       # number of overall MSHR miss cycles
system.l2.overall_mshr_miss_latency::.cpu.data  14980128500                       # number of overall MSHR miss cycles
system.l2.overall_mshr_miss_latency::total  15025649500                       # number of overall MSHR miss cycles
system.l2.demand_mshr_miss_rate::.cpu.inst     0.868047                       # mshr miss rate for demand accesses
system.l2.demand_mshr_miss_rate::.cpu.data     0.356794                       # mshr miss rate for demand accesses
system.l2.demand_mshr_miss_rate::total       0.357494                       # mshr miss rate for demand accesses
system.l2.overall_mshr_miss_rate::.cpu.inst     0.868047                       # mshr miss rate for overall accesses
system.l2.overall_mshr_miss_rate::.cpu.data     0.356794                       # mshr miss rate for overall accesses
system.l2.overall_mshr_miss_rate::total      0.357494                       # mshr miss rate for overall accesses
system.l2.demand_avg_mshr_miss_latency::.cpu.inst 67840.536513                       # average overall mshr miss latency
system.l2.demand_avg_mshr_miss_latency::.cpu.data 74476.128567                       # average overall mshr miss latency
system.l2.demand_avg_mshr_miss_latency::total 74454.065933                       # average overall mshr miss latency
system.l2.overall_avg_mshr_miss_latency::.cpu.inst 67840.536513                       # average overall mshr miss latency
system.l2.overall_avg_mshr_miss_latency::.cpu.data 74476.128567                       # average overall mshr miss latency
system.l2.overall_avg_mshr_miss_latency::total 74454.065933                       # average overall mshr miss latency
system.l2.replacements                         169178                       # number of replacements
system.l2.WritebackDirty_hits::.writebacks       488024                       # number of WritebackDirty hits
system.l2.WritebackDirty_hits::total           488024                       # number of WritebackDirty hits
system.l2.WritebackDirty_accesses::.writebacks       488024                       # number of WritebackDirty accesses(hits+misses)
system.l2.WritebackDirty_accesses::total       488024                       # number of WritebackDirty accesses(hits+misses)
system.l2.WritebackClean_hits::.writebacks          324                       # number of WritebackClean hits
system.l2.WritebackClean_hits::total              324                       # number of WritebackClean hits
system.l2.WritebackClean_accesses::.writebacks          324                       # number of WritebackClean accesses(hits+misses)
system.l2.WritebackClean_accesses::total          324                       # number of WritebackClean accesses(hits+misses)
system.l2.CleanEvict_mshr_misses::.writebacks            1                       # number of CleanEvict MSHR misses
system.l2.CleanEvict_mshr_misses::total             1                       # number of CleanEvict MSHR misses
system.l2.CleanEvict_mshr_miss_rate::.writebacks          inf                       # mshr miss rate for CleanEvict accesses
system.l2.CleanEvict_mshr_miss_rate::total          inf                       # mshr miss rate for CleanEvict accesses
system.l2.ReadExReq_hits::.cpu.data            126312                       # number of ReadExReq hits
system.l2.ReadExReq_hits::total                126312                       # number of ReadExReq hits
system.l2.ReadExReq_misses::.cpu.data          136082                       # number of ReadExReq misses
system.l2.ReadExReq_misses::total              136082                       # number of ReadExReq misses
system.l2.ReadExReq_miss_latency::.cpu.data  11781407000                       # number of ReadExReq miss cycles
system.l2.ReadExReq_miss_latency::total   11781407000                       # number of ReadExReq miss cycles
system.l2.ReadExReq_accesses::.cpu.data        262394                       # number of ReadExReq accesses(hits+misses)
system.l2.ReadExReq_accesses::total            262394                       # number of ReadExReq accesses(hits+misses)
system.l2.ReadExReq_miss_rate::.cpu.data     0.518617                       # miss rate for ReadExReq accesses
system.l2.ReadExReq_miss_rate::total         0.518617                       # miss rate for ReadExReq accesses
system.l2.ReadExReq_avg_miss_latency::.cpu.data 86575.792537                       # average ReadExReq miss latency
system.l2.ReadExReq_avg_miss_latency::total 86575.792537                       # average ReadExReq miss latency
system.l2.ReadExReq_mshr_misses::.cpu.data       136082                       # number of ReadExReq MSHR misses
system.l2.ReadExReq_mshr_misses::total         136082                       # number of ReadExReq MSHR misses
system.l2.ReadExReq_mshr_miss_latency::.cpu.data  10420587000                       # number of ReadExReq MSHR miss cycles
system.l2.ReadExReq_mshr_miss_latency::total  10420587000                       # number of ReadExReq MSHR miss cycles
system.l2.ReadExReq_mshr_miss_rate::.cpu.data     0.518617                       # mshr miss rate for ReadExReq accesses
system.l2.ReadExReq_mshr_miss_rate::total     0.518617                       # mshr miss rate for ReadExReq accesses
system.l2.ReadExReq_avg_mshr_miss_latency::.cpu.data 76575.792537                       # average ReadExReq mshr miss latency
system.l2.ReadExReq_avg_mshr_miss_latency::total 76575.792537                       # average ReadExReq mshr miss latency
system.l2.ReadCleanReq_hits::.cpu.inst            102                       # number of ReadCleanReq hits
system.l2.ReadCleanReq_hits::total                102                       # number of ReadCleanReq hits
system.l2.ReadCleanReq_misses::.cpu.inst          671                       # number of ReadCleanReq misses
system.l2.ReadCleanReq_misses::total              671                       # number of ReadCleanReq misses
system.l2.ReadCleanReq_miss_latency::.cpu.inst     52231000                       # number of ReadCleanReq miss cycles
system.l2.ReadCleanReq_miss_latency::total     52231000                       # number of ReadCleanReq miss cycles
system.l2.ReadCleanReq_accesses::.cpu.inst          773                       # number of ReadCleanReq accesses(hits+misses)
system.l2.ReadCleanReq_accesses::total            773                       # number of ReadCleanReq accesses(hits+misses)
system.l2.ReadCleanReq_miss_rate::.cpu.inst     0.868047                       # miss rate for ReadCleanReq accesses
system.l2.ReadCleanReq_miss_rate::total      0.868047                       # miss rate for ReadCleanReq accesses
system.l2.ReadCleanReq_avg_miss_latency::.cpu.inst 77840.536513                       # average ReadCleanReq miss latency
system.l2.ReadCleanReq_avg_miss_latency::total 77840.536513                       # average ReadCleanReq miss latency
system.l2.ReadCleanReq_mshr_misses::.cpu.inst          671                       # number of ReadCleanReq MSHR misses
system.l2.ReadCleanReq_mshr_misses::total          671                       # number of ReadCleanReq MSHR misses
system.l2.ReadCleanReq_mshr_miss_latency::.cpu.inst     45521000                       # number of ReadCleanReq MSHR miss cycles
system.l2.ReadCleanReq_mshr_miss_latency::total     45521000                       # number of ReadCleanReq MSHR miss cycles
system.l2.ReadCleanReq_mshr_miss_rate::.cpu.inst     0.868047                       # mshr miss rate for ReadCleanReq accesses
system.l2.ReadCleanReq_mshr_miss_rate::total     0.868047                       # mshr miss rate for ReadCleanReq accesses
system.l2.ReadCleanReq_avg_mshr_miss_latency::.cpu.inst 67840.536513                       # average ReadCleanReq mshr miss latency
system.l2.ReadCleanReq_avg_mshr_miss_latency::total 67840.536513                       # average ReadCleanReq mshr miss latency
system.l2.ReadSharedReq_hits::.cpu.data        236284                       # number of ReadSharedReq hits
system.l2.ReadSharedReq_hits::total            236284                       # number of ReadSharedReq hits
system.l2.ReadSharedReq_misses::.cpu.data        65064                       # number of ReadSharedReq misses
system.l2.ReadSharedReq_misses::total           65064                       # number of ReadSharedReq misses
system.l2.ReadSharedReq_miss_latency::.cpu.data   5210499000                       # number of ReadSharedReq miss cycles
system.l2.ReadSharedReq_miss_latency::total   5210499000                       # number of ReadSharedReq miss cycles
system.l2.ReadSharedReq_accesses::.cpu.data       301348                       # number of ReadSharedReq accesses(hits+misses)
system.l2.ReadSharedReq_accesses::total        301348                       # number of ReadSharedReq accesses(hits+misses)
system.l2.ReadSharedReq_miss_rate::.cpu.data     0.215910                       # miss rate for ReadSharedReq accesses
system.l2.ReadSharedReq_miss_rate::total     0.215910                       # miss rate for ReadSharedReq accesses
system.l2.ReadSharedReq_avg_miss_latency::.cpu.data 80082.672446                       # average ReadSharedReq miss latency
system.l2.ReadSharedReq_avg_miss_latency::total 80082.672446                       # average ReadSharedReq miss latency
system.l2.ReadSharedReq_mshr_hits::.cpu.data            6                       # number of ReadSharedReq MSHR hits
system.l2.ReadSharedReq_mshr_hits::total            6                       # number of ReadSharedReq MSHR hits
system.l2.ReadSharedReq_mshr_misses::.cpu.data        65058                       # number of ReadSharedReq MSHR misses
system.l2.ReadSharedReq_mshr_misses::total        65058                       # number of ReadSharedReq MSHR misses
system.l2.ReadSharedReq_mshr_miss_latency::.cpu.data   4559541500                       # number of ReadSharedReq MSHR miss cycles
system.l2.ReadSharedReq_mshr_miss_latency::total   4559541500                       # number of ReadSharedReq MSHR miss cycles
system.l2.ReadSharedReq_mshr_miss_rate::.cpu.data     0.215890                       # mshr miss rate for ReadSharedReq accesses
system.l2.ReadSharedReq_mshr_miss_rate::total     0.215890                       # mshr miss rate for ReadSharedReq accesses
system.l2.ReadSharedReq_avg_mshr_miss_latency::.cpu.data 70084.255587                       # average ReadSharedReq mshr miss latency
system.l2.ReadSharedReq_avg_mshr_miss_latency::total 70084.255587                       # average ReadSharedReq mshr miss latency
system.l2.power_state.pwrStateResidencyTicks::UNDEFINED  82490305500                       # Cumulative time (in ticks) in various power states
system.l2.tags.tagsinuse                 31882.249337                       # Cycle average of tags in use
system.l2.tags.total_refs                     1127500                       # Total number of references to valid blocks.
system.l2.tags.sampled_refs                    201946                       # Sample count of references to valid blocks.
system.l2.tags.avg_refs                      5.583176                       # Average number of references to valid blocks.
system.l2.tags.warmup_cycle                     77000                       # Cycle when the warmup percentage was hit.
system.l2.tags.occ_blocks::.writebacks      48.739907                       # Average occupied blocks per requestor
system.l2.tags.occ_blocks::.cpu.inst        86.849666                       # Average occupied blocks per requestor
system.l2.tags.occ_blocks::.cpu.data     31746.659764                       # Average occupied blocks per requestor
system.l2.tags.occ_percent::.writebacks      0.001487                       # Average percentage of cache occupancy
system.l2.tags.occ_percent::.cpu.inst        0.002650                       # Average percentage of cache occupancy
system.l2.tags.occ_percent::.cpu.data        0.968831                       # Average percentage of cache occupancy
system.l2.tags.occ_percent::total            0.972969                       # Average percentage of cache occupancy
system.l2.tags.occ_task_id_blocks::1024         32768                       # Occupied blocks per task id
system.l2.tags.age_task_id_blocks_1024::1          137                       # Occupied blocks per task id
system.l2.tags.age_task_id_blocks_1024::2         1173                       # Occupied blocks per task id
system.l2.tags.age_task_id_blocks_1024::3        15953                       # Occupied blocks per task id
system.l2.tags.age_task_id_blocks_1024::4        15505                       # Occupied blocks per task id
system.l2.tags.occ_task_id_percent::1024            1                       # Percentage of cache occupancy per task id
system.l2.tags.tag_accesses                   9222002                       # Number of tag accesses
system.l2.tags.data_accesses                  9222002                       # Number of data accesses
system.l2.tags.power_state.pwrStateResidencyTicks::UNDEFINED  82490305500                       # Cumulative time (in ticks) in various power states
system.mem_ctrls.avgPriority_.writebacks::samples    111027.00                       # Average QoS priority value for accepted requests
system.mem_ctrls.avgPriority_.cpu.inst::samples       671.00                       # Average QoS priority value for accepted requests
system.mem_ctrls.avgPriority_.cpu.data::samples    201097.00                       # Average QoS priority value for accepted requests
system.mem_ctrls.priorityMinLatency      0.000000018750                       # per QoS priority minimum request to response latency (s)
system.mem_ctrls.priorityMaxLatency      0.003468572500                       # per QoS priority maximum request to response latency (s)
system.mem_ctrls.numReadWriteTurnArounds         6647                       # Number of turnarounds from READ to WRITE
system.mem_ctrls.numWriteReadTurnArounds         6647                       # Number of turnarounds from WRITE to READ
system.mem_ctrls.numStayReadState              524880                       # Number of times bus staying in READ state
system.mem_ctrls.numStayWriteState             104543                       # Number of times bus staying in WRITE state
system.mem_ctrls.readReqs                      201811                       # Number of read requests accepted
system.mem_ctrls.writeReqs                     111027                       # Number of write requests accepted
system.mem_ctrls.readBursts                    201811                       # Number of controller read bursts, including those serviced by the write queue
system.mem_ctrls.writeBursts                   111027                       # Number of controller write bursts, including those merged in the write queue
system.mem_ctrls.servicedByWrQ                     43                       # Number of controller read bursts serviced by the write queue
system.mem_ctrls.mergedWrBursts                     0                       # Number of controller write bursts merged with an existing one
system.mem_ctrls.neitherReadNorWriteReqs            0                       # Number of requests that are neither read nor write
system.mem_ctrls.avgRdQLen                       1.09                       # Average read queue length when enqueuing
system.mem_ctrls.avgWrQLen                      24.80                       # Average write queue length when enqueuing
system.mem_ctrls.numRdRetry                         0                       # Number of times read queue was full causing retry
system.mem_ctrls.numWrRetry                         0                       # Number of times write queue was full causing retry
system.mem_ctrls.readPktSize::0                     0                       # Read request sizes (log2)
system.mem_ctrls.readPktSize::1                     0                       # Read request sizes (log2)
system.mem_ctrls.readPktSize::2                     0                       # Read request sizes (log2)
system.mem_ctrls.readPktSize::3                     0                       # Read request sizes (log2)
system.mem_ctrls.readPktSize::4                     0                       # Read request sizes (log2)
system.mem_ctrls.readPktSize::5                     0                       # Read request sizes (log2)
system.mem_ctrls.readPktSize::6                201811                       # Read request sizes (log2)
system.mem_ctrls.writePktSize::0                    0                       # Write request sizes (log2)
system.mem_ctrls.writePktSize::1                    0                       # Write request sizes (log2)
system.mem_ctrls.writePktSize::2                    0                       # Write request sizes (log2)
system.mem_ctrls.writePktSize::3                    0                       # Write request sizes (log2)
system.mem_ctrls.writePktSize::4                    0                       # Write request sizes (log2)
system.mem_ctrls.writePktSize::5                    0                       # Write request sizes (log2)
system.mem_ctrls.writePktSize::6               111027                       # Write request sizes (log2)
system.mem_ctrls.rdQLenPdf::0                  139404                       # What read queue length does an incoming req see
system.mem_ctrls.rdQLenPdf::1                   59622                       # What read queue length does an incoming req see
system.mem_ctrls.rdQLenPdf::2                    2401                       # What read queue length does an incoming req see
system.mem_ctrls.rdQLenPdf::3                     340                       # What read queue length does an incoming req see
system.mem_ctrls.rdQLenPdf::4                       1                       # What read queue length does an incoming req see
system.mem_ctrls.rdQLenPdf::5                       0                       # What read queue length does an incoming req see
system.mem_ctrls.rdQLenPdf::6                       0                       # What read queue length does an incoming req see
system.mem_ctrls.rdQLenPdf::7                       0                       # What read queue length does an incoming req see
[...]
system.mem_ctrls.dram.bw_write::.writebacks     86140159                       # Write bandwidth from this memory (bytes/s)
system.mem_ctrls.dram.bw_write::total        86140159                       # Write bandwidth from this memory (bytes/s)
system.mem_ctrls.dram.bw_total::.writebacks     86140159                       # Total bandwidth to/from this memory (bytes/s)
system.mem_ctrls.dram.bw_total::.cpu.inst       520595                       # Total bandwidth to/from this memory (bytes/s)
system.mem_ctrls.dram.bw_total::.cpu.data    156054217                       # Total bandwidth to/from this memory (bytes/s)
system.mem_ctrls.dram.bw_total::total       242714970                       # Total bandwidth to/from this memory (bytes/s)
system.mem_ctrls.dram.readBursts               201768                       # Number of DRAM read bursts
system.mem_ctrls.dram.writeBursts              110996                       # Number of DRAM write bursts
system.mem_ctrls.dram.perBankRdBursts::0        12905                       # Per bank write bursts
system.mem_ctrls.dram.perBankRdBursts::1        12868                       # Per bank write bursts
system.mem_ctrls.dram.perBankRdBursts::2        12768                       # Per bank write bursts
system.mem_ctrls.dram.perBankRdBursts::3        12532                       # Per bank write bursts
system.mem_ctrls.dram.perBankRdBursts::4        12593                       # Per bank write bursts
system.mem_ctrls.dram.perBankRdBursts::5        12356                       # Per bank write bursts
system.mem_ctrls.dram.perBankRdBursts::6        12587                       # Per bank write bursts
system.mem_ctrls.dram.perBankRdBursts::7        12369                       # Per bank write bursts
system.mem_ctrls.dram.perBankRdBursts::8        12462                       # Per bank write bursts
system.mem_ctrls.dram.perBankRdBursts::9        12125                       # Per bank write bursts
system.mem_ctrls.dram.perBankRdBursts::10        12588                       # Per bank write bursts
system.mem_ctrls.dram.perBankRdBursts::11        12638                       # Per bank write bursts
system.mem_ctrls.dram.perBankRdBursts::12        12776                       # Per bank write bursts
system.mem_ctrls.dram.perBankRdBursts::13        12737                       # Per bank write bursts
system.mem_ctrls.dram.perBankRdBursts::14        12791                       # Per bank write bursts
system.mem_ctrls.dram.perBankRdBursts::15        12673                       # Per bank write bursts
system.mem_ctrls.dram.perBankWrBursts::0         7056                       # Per bank write bursts
system.mem_ctrls.dram.perBankWrBursts::1         7147                       # Per bank write bursts
system.mem_ctrls.dram.perBankWrBursts::2         7053                       # Per bank write bursts
system.mem_ctrls.dram.perBankWrBursts::3         6942                       # Per bank write bursts
system.mem_ctrls.dram.perBankWrBursts::4         7009                       # Per bank write bursts
system.mem_ctrls.dram.perBankWrBursts::5         6935                       # Per bank write bursts
system.mem_ctrls.dram.perBankWrBursts::6         7116                       # Per bank write bursts
system.mem_ctrls.dram.perBankWrBursts::7         6841                       # Per bank write bursts
system.mem_ctrls.dram.perBankWrBursts::8         6785                       # Per bank write bursts
system.mem_ctrls.dram.perBankWrBursts::9         6484                       # Per bank write bursts
system.mem_ctrls.dram.perBankWrBursts::10         6879                       # Per bank write bursts
system.mem_ctrls.dram.perBankWrBursts::11         6907                       # Per bank write bursts
system.mem_ctrls.dram.perBankWrBursts::12         6994                       # Per bank write bursts
system.mem_ctrls.dram.perBankWrBursts::13         6930                       # Per bank write bursts
system.mem_ctrls.dram.perBankWrBursts::14         6996                       # Per bank write bursts
system.mem_ctrls.dram.perBankWrBursts::15         6922                       # Per bank write bursts
system.mem_ctrls.dram.totQLat              2923302000                       # Total ticks spent queuing
system.mem_ctrls.dram.totBusLat            1008840000                       # Total ticks spent in databus transfers
system.mem_ctrls.dram.totMemAccLat         6706452000                       # Total ticks spent from burst creation until serviced by the DRAM
system.mem_ctrls.dram.avgQLat                14488.43                       # Average queueing delay per DRAM burst
system.mem_ctrls.dram.avgBusLat               5000.00                       # Average bus latency per DRAM burst
system.mem_ctrls.dram.avgMemAccLat           33238.43                       # Average memory access latency per DRAM burst
system.mem_ctrls.dram.readRowHits              138994                       # Number of row buffer hits during reads
system.mem_ctrls.dram.writeRowHits              69994                       # Number of row buffer hits during writes
system.mem_ctrls.dram.readRowHitRate            68.89                       # Row buffer hit rate for reads
system.mem_ctrls.dram.writeRowHitRate           63.06                       # Row buffer hit rate for writes
system.mem_ctrls.dram.bytesPerActivate::samples       103776                       # Bytes accessed per row activation
system.mem_ctrls.dram.bytesPerActivate::mean   192.885600                       # Bytes accessed per row activation
system.mem_ctrls.dram.bytesPerActivate::gmean   112.382030                       # Bytes accessed per row activation
system.mem_ctrls.dram.bytesPerActivate::stdev   257.141325                       # Bytes accessed per row activation
system.mem_ctrls.dram.bytesPerActivate::0-127        68076     65.60%     65.60% # Bytes accessed per row activation
system.mem_ctrls.dram.bytesPerActivate::128-255        14453     13.93%     79.53% # Bytes accessed per row activation
system.mem_ctrls.dram.bytesPerActivate::256-383         2397      2.31%     81.84% # Bytes accessed per row activation
system.mem_ctrls.dram.bytesPerActivate::384-511         1599      1.54%     83.38% # Bytes accessed per row activation
system.mem_ctrls.dram.bytesPerActivate::512-639         9189      8.85%     92.23% # Bytes accessed per row activation
system.mem_ctrls.dram.bytesPerActivate::640-767         1522      1.47%     93.70% # Bytes accessed per row activation
system.mem_ctrls.dram.bytesPerActivate::768-895          496      0.48%     94.18% # Bytes accessed per row activation
system.mem_ctrls.dram.bytesPerActivate::896-1023          403      0.39%     94.56% # Bytes accessed per row activation
system.mem_ctrls.dram.bytesPerActivate::1024-1151         5641      5.44%    100.00% # Bytes accessed per row activation
system.mem_ctrls.dram.bytesPerActivate::total       103776                       # Bytes accessed per row activation
system.mem_ctrls.dram.bytesRead              12913152                       # Total number of bytes read from DRAM
system.mem_ctrls.dram.bytesWritten            7103744                       # Total number of bytes written to DRAM
system.mem_ctrls.dram.avgRdBW              156.541450                       # Average DRAM read bandwidth in MiBytes/s
system.mem_ctrls.dram.avgWrBW               86.116107                       # Average DRAM write bandwidth in MiBytes/s
system.mem_ctrls.dram.peakBW                 12800.00                       # Theoretical peak bandwidth in MiByte/s
system.mem_ctrls.dram.busUtil                    1.90                       # Data bus utilization in percentage
system.mem_ctrls.dram.busUtilRead                1.22                       # Data bus utilization in percentage for reads
system.mem_ctrls.dram.busUtilWrite               0.67                       # Data bus utilization in percentage for writes
system.mem_ctrls.dram.pageHitRate               66.82                       # Row buffer hit rate, read and write combined
system.mem_ctrls.dram.power_state.pwrStateResidencyTicks::UNDEFINED  82490305500                       # Cumulative time (in ticks) in various power states
system.mem_ctrls.dram.rank0.actEnergy       373286340                       # Energy for activate commands per rank (pJ)
system.mem_ctrls.dram.rank0.preEnergy       198406395                       # Energy for precharge commands per rank (pJ)
system.mem_ctrls.dram.rank0.readEnergy      720982920                       # Energy for read commands per rank (pJ)
system.mem_ctrls.dram.rank0.writeEnergy     292836780                       # Energy for write commands per rank (pJ)
system.mem_ctrls.dram.rank0.refreshEnergy 6511496160.000001                       # Energy for refresh commands per rank (pJ)
system.mem_ctrls.dram.rank0.actBackEnergy  21373238700                       # Energy for active background per rank (pJ)
system.mem_ctrls.dram.rank0.preBackEnergy  13677760800                       # Energy for precharge background per rank (pJ)
system.mem_ctrls.dram.rank0.actPowerDownEnergy            0                       # Energy for active power-down per rank (pJ)
system.mem_ctrls.dram.rank0.prePowerDownEnergy            0                       # Energy for precharge power-down per rank (pJ)
system.mem_ctrls.dram.rank0.selfRefreshEnergy            0                       # Energy for self refresh per rank (pJ)
system.mem_ctrls.dram.rank0.totalEnergy   43148008095                       # Total energy per rank (pJ)
system.mem_ctrls.dram.rank0.averagePower   523.067624                       # Core power per rank (mW)
system.mem_ctrls.dram.rank0.totalIdleTime            0                       # Total Idle time Per DRAM Rank
system.mem_ctrls.dram.rank0.pwrStateTime::IDLE  35340453500                       # Time in different power states
system.mem_ctrls.dram.rank0.pwrStateTime::REF   2754440000                       # Time in different power states
system.mem_ctrls.dram.rank0.pwrStateTime::SREF            0                       # Time in different power states
system.mem_ctrls.dram.rank0.pwrStateTime::PRE_PDN            0                       # Time in different power states
system.mem_ctrls.dram.rank0.pwrStateTime::ACT  44395412000                       # Time in different power states
system.mem_ctrls.dram.rank0.pwrStateTime::ACT_PDN            0                       # Time in different power states
system.mem_ctrls.dram.rank1.actEnergy       367674300                       # Energy for activate commands per rank (pJ)
system.mem_ctrls.dram.rank1.preEnergy       195423525                       # Energy for precharge commands per rank (pJ)
system.mem_ctrls.dram.rank1.readEnergy      719640600                       # Energy for read commands per rank (pJ)
system.mem_ctrls.dram.rank1.writeEnergy     286562340                       # Energy for write commands per rank (pJ)
system.mem_ctrls.dram.rank1.refreshEnergy 6511496160.000001                       # Energy for refresh commands per rank (pJ)
system.mem_ctrls.dram.rank1.actBackEnergy  21034508790                       # Energy for active background per rank (pJ)
system.mem_ctrls.dram.rank1.preBackEnergy  13963007040                       # Energy for precharge background per rank (pJ)
system.mem_ctrls.dram.rank1.actPowerDownEnergy            0                       # Energy for active power-down per rank (pJ)
system.mem_ctrls.dram.rank1.prePowerDownEnergy            0                       # Energy for precharge power-down per rank (pJ)
system.mem_ctrls.dram.rank1.selfRefreshEnergy            0                       # Energy for self refresh per rank (pJ)
system.mem_ctrls.dram.rank1.totalEnergy   43078312755                       # Total energy per rank (pJ)
system.mem_ctrls.dram.rank1.averagePower   522.222733                       # Core power per rank (mW)
system.mem_ctrls.dram.rank1.totalIdleTime            0                       # Total Idle time Per DRAM Rank
system.mem_ctrls.dram.rank1.pwrStateTime::IDLE  36083573000                       # Time in different power states
system.mem_ctrls.dram.rank1.pwrStateTime::REF   2754440000                       # Time in different power states
system.mem_ctrls.dram.rank1.pwrStateTime::SREF            0                       # Time in different power states
system.mem_ctrls.dram.rank1.pwrStateTime::PRE_PDN            0                       # Time in different power states
system.mem_ctrls.dram.rank1.pwrStateTime::ACT  43652292500                       # Time in different power states
system.mem_ctrls.dram.rank1.pwrStateTime::ACT_PDN            0                       # Time in different power states
system.mem_ctrls.power_state.pwrStateResidencyTicks::UNDEFINED  82490305500                       # Cumulative time (in ticks) in various power states
system.membus.trans_dist::ReadResp              65729                       # Transaction distribution
system.membus.trans_dist::WritebackDirty       111027                       # Transaction distribution
system.membus.trans_dist::CleanEvict            57675                       # Transaction distribution
system.membus.trans_dist::ReadExReq            136082                       # Transaction distribution
system.membus.trans_dist::ReadExResp           136082                       # Transaction distribution
system.membus.trans_dist::ReadSharedReq         65729                       # Transaction distribution
system.membus.pkt_count_system.l2.mem_side_port::system.mem_ctrls.port       572324                       # Packet count per connected requestor and responder (bytes)
system.membus.pkt_count::total                 572324                       # Packet count per connected requestor and responder (bytes)
system.membus.pkt_size_system.l2.mem_side_port::system.mem_ctrls.port     20021632                       # Cumulative packet size per connected requestor and responder (bytes)
system.membus.pkt_size::total                20021632                       # Cumulative packet size per connected requestor and responder (bytes)
system.membus.snoops                                0                       # Total snoops (count)
system.membus.snoopTraffic                          0                       # Total snoop traffic (bytes)
system.membus.snoop_fanout::samples            201811                       # Request fanout histogram
system.membus.snoop_fanout::mean                    0                       # Request fanout histogram
system.membus.snoop_fanout::stdev                   0                       # Request fanout histogram
system.membus.snoop_fanout::underflows              0      0.00%      0.00% # Request fanout histogram
system.membus.snoop_fanout::0                  201811    100.00%    100.00% # Request fanout histogram
system.membus.snoop_fanout::1                       0      0.00%    100.00% # Request fanout histogram
system.membus.snoop_fanout::overflows               0      0.00%    100.00% # Request fanout histogram
system.membus.snoop_fanout::min_value               0                       # Request fanout histogram
system.membus.snoop_fanout::max_value               0                       # Request fanout histogram
system.membus.snoop_fanout::total              201811                       # Request fanout histogram
system.membus.power_state.pwrStateResidencyTicks::UNDEFINED  82490305500                       # Cumulative time (in ticks) in various power states
system.membus.reqLayer0.occupancy           852242000                       # Layer occupancy (ticks)
system.membus.reqLayer0.utilization               1.0                       # Layer utilization (%)
system.membus.respLayer1.occupancy         1086828000                       # Layer occupancy (ticks)
system.membus.respLayer1.utilization              1.3                       # Layer utilization (%)
system.tol2bus.trans_dist::ReadResp            302121                       # Transaction distribution
system.tol2bus.trans_dist::WritebackDirty       599051                       # Transaction distribution
system.tol2bus.trans_dist::WritebackClean          333                       # Transaction distribution
system.tol2bus.trans_dist::CleanEvict          132845                       # Transaction distribution
system.tol2bus.trans_dist::ReadExReq           262394                       # Transaction distribution
system.tol2bus.trans_dist::ReadExResp          262394                       # Transaction distribution
system.tol2bus.trans_dist::ReadCleanReq           773                       # Transaction distribution
system.tol2bus.trans_dist::ReadSharedReq       301348                       # Transaction distribution
system.tol2bus.pkt_count_system.cpu.icache.mem_side_port::system.l2.cpu_side_port         1879                       # Packet count per connected requestor and responder (bytes)
system.tol2bus.pkt_count_system.cpu.dcache.mem_side_port::system.l2.cpu_side_port      1690202                       # Packet count per connected requestor and responder (bytes)
system.tol2bus.pkt_count::total               1692081                       # Packet count per connected requestor and responder (bytes)
system.tol2bus.pkt_size_system.cpu.icache.mem_side_port::system.l2.cpu_side_port        70784                       # Cumulative packet size per connected requestor and responder (bytes)
system.tol2bus.pkt_size_system.cpu.dcache.mem_side_port::system.l2.cpu_side_port     67313024                       # Cumulative packet size per connected requestor and responder (bytes)
system.tol2bus.pkt_size::total               67383808                       # Cumulative packet size per connected requestor and responder (bytes)
system.tol2bus.snoops                          169178                       # Total snoops (count)
system.tol2bus.snoopTraffic                   7105728                       # Total snoop traffic (bytes)
system.tol2bus.snoop_fanout::samples           733693                       # Request fanout histogram
system.tol2bus.snoop_fanout::mean            0.000733                       # Request fanout histogram
system.tol2bus.snoop_fanout::stdev           0.027069                       # Request fanout histogram
system.tol2bus.snoop_fanout::underflows             0      0.00%      0.00% # Request fanout histogram
system.tol2bus.snoop_fanout::0                 733155     99.93%     99.93% # Request fanout histogram
system.tol2bus.snoop_fanout::1                    538      0.07%    100.00% # Request fanout histogram
system.tol2bus.snoop_fanout::2                      0      0.00%    100.00% # Request fanout histogram
system.tol2bus.snoop_fanout::overflows              0      0.00%    100.00% # Request fanout histogram
system.tol2bus.snoop_fanout::min_value              0                       # Request fanout histogram
system.tol2bus.snoop_fanout::max_value              1                       # Request fanout histogram
system.tol2bus.snoop_fanout::total             733693                       # Request fanout histogram
system.tol2bus.power_state.pwrStateResidencyTicks::UNDEFINED  82490305500                       # Cumulative time (in ticks) in various power states
system.tol2bus.reqLayer0.occupancy         1052140000                       # Layer occupancy (ticks)
system.tol2bus.reqLayer0.utilization              1.3                       # Layer utilization (%)
system.tol2bus.respLayer0.occupancy           1159500                       # Layer occupancy (ticks)
system.tol2bus.respLayer0.utilization             0.0                       # Layer utilization (%)
system.tol2bus.respLayer1.occupancy         845615994                       # Layer occupancy (ticks)
system.tol2bus.respLayer1.utilization             1.0                       # Layer utilization (%)
system.voltage_domain.voltage                       1                       # Voltage in Volts

---------- End Simulation Statistics   ----------
