
---------- Begin Simulation Statistics ----------
final_tick                                81709372000                       # Number of ticks from beginning of simulation (restored from checkpoints and never reset)
host_inst_rate                                 383383                       # Simulator instruction rate (inst/s)
host_mem_usage                                 666256                       # Number of bytes of host memory used
host_op_rate                                   384135                       # Simulator op (including micro ops) rate (op/s)
host_seconds                                   260.84                       # Real time elapsed on the host
host_tick_rate                              313259520                       # Simulator tick rate (ticks/s)
sim_freq                                 1000000000000                       # Frequency of simulated ticks
sim_insts                                   100000000                       # Number of instructions simulated
sim_ops                                     100196355                       # Number of ops (including micro ops) simulated
sim_seconds                                  0.081709                       # Number of seconds simulated
sim_ticks                                 81709372000                       # Number of ticks simulated
system.cpu.committedInsts                   100000000                       # Number of instructions committed
system.cpu.committedOps                     100196355                       # Number of ops (including micro ops) committed
system.cpu.cpi                               1.634187                       # CPI: cycles per instruction
system.cpu.discardedOps                        188634                       # Number of ops (including micro ops) which were discarded before commit
system.cpu.idleCycles                        31050939                       # Total number of cycles that the object has spent stopped
system.cpu.ipc                               0.611925                       # IPC: instructions per cycle
system.cpu.numCycles                        163418744                       # number of cpu cycles simulated
system.cpu.numFetchSuspends                         0                       # Number of times Execute suspended instruction fetching
system.cpu.numWorkItemsCompleted                    0                       # number of work items this cpu completed
system.cpu.numWorkItemsStarted                      0                       # number of work items this cpu started
system.cpu.op_class_0::No_OpClass                   0      0.00%      0.00% # Class of committed instruction
system.cpu.op_class_0::IntAlu                46526862     46.44%     46.44% # Class of committed instruction
system.cpu.op_class_0::IntMult                  20723      0.02%     46.46% # Class of committed instruction
system.cpu.op_class_0::IntDiv                       0      0.00%     46.46% # Class of committed instruction
system.cpu.op_class_0::FloatAdd                     0      0.00%     46.46% # Class of committed instruction
system.cpu.op_class_0::FloatCmp                     0      0.00%     46.46% # Class of committed instruction
system.cpu.op_class_0::FloatCvt                     0      0.00%     46.46% # Class of committed instruction
system.cpu.op_class_0::FloatMult                    0      0.00%     46.46% # Class of committed instruction
system.cpu.op_class_0::FloatMultAcc                 0      0.00%     46.46% # Class of committed instruction
system.cpu.op_class_0::FloatDiv                     0      0.00%     46.46% # Class of committed instruction
system.cpu.op_class_0::FloatMisc                    0      0.00%     46.46% # Class of committed instruction
system.cpu.op_class_0::FloatSqrt                    0      0.00%     46.46% # Class of committed instruction
system.cpu.op_class_0::SimdAdd                      0      0.00%     46.46% # Class of committed instruction
system.cpu.op_class_0::SimdAddAcc                   0      0.00%     46.46% # Class of committed instruction
system.cpu.op_class_0::SimdAlu                      0      0.00%     46.46% # Class of committed instruction
system.cpu.op_class_0::SimdCmp                      0      0.00%     46.46% # Class of committed instruction
system.cpu.op_class_0::SimdCvt                      0      0.00%     46.46% # Class of committed instruction
system.cpu.op_class_0::SimdMisc                     0      0.00%     46.46% # Class of committed instruction
system.cpu.op_class_0::SimdMult                     0      0.00%     46.46% # Class of committed instruction
system.cpu.op_class_0::SimdMultAcc                  0      0.00%     46.46% # Class of committed instruction
system.cpu.op_class_0::SimdShift                    0      0.00%     46.46% # Class of committed instruction
system.cpu.op_class_0::SimdShiftAcc                 0      0.00%     46.46% # Class of committed instruction
system.cpu.op_class_0::SimdDiv                      0      0.00%     46.46% # Class of committed instruction
system.cpu.op_class_0::SimdSqrt                     0      0.00%     46.46% # Class of committed instruction
system.cpu.op_class_0::SimdFloatAdd                 0      0.00%     46.46% # Class of committed instruction
system.cpu.op_class_0::SimdFloatAlu                 0      0.00%     46.46% # Class of committed instruction
system.cpu.op_class_0::SimdFloatCmp                 0      0.00%     46.46% # Class of committed instruction
system.cpu.op_class_0::SimdFloatCvt                 0      0.00%     46.46% # Class of committed instruction
system.cpu.op_class_0::SimdFloatDiv                 0      0.00%     46.46% # Class of committed instruction
system.cpu.op_class_0::SimdFloatMisc               18      0.00%     46.46% # Class of committed instruction
system.cpu.op_class_0::SimdFloatMult                0      0.00%     46.46% # Class of committed instruction
system.cpu.op_class_0::SimdFloatMultAcc             0      0.00%     46.46% # Class of committed instruction
system.cpu.op_class_0::SimdFloatSqrt                0      0.00%     46.46% # Class of committed instruction
system.cpu.op_class_0::SimdReduceAdd                0      0.00%     46.46% # Class of committed instruction
system.cpu.op_class_0::SimdReduceAlu                0      0.00%     46.46% # Class of committed instruction
system.cpu.op_class_0::SimdReduceCmp                0      0.00%     46.46% # Class of committed instruction
system.cpu.op_class_0::SimdFloatReduceAdd            0      0.00%     46.46% # Class of committed instruction
system.cpu.op_class_0::SimdFloatReduceCmp            0      0.00%     46.46% # Class of committed instruction
system.cpu.op_class_0::SimdAes                      0      0.00%     46.46% # Class of committed instruction
system.cpu.op_class_0::SimdAesMix                   0      0.00%     46.46% # Class of committed instruction
system.cpu.op_class_0::SimdSha1Hash                 0      0.00%     46.46% # Class of committed instruction
system.cpu.op_class_0::SimdSha1Hash2                0      0.00%     46.46% # Class of committed instruction
system.cpu.op_class_0::SimdSha256Hash               0      0.00%     46.46% # Class of committed instruction
system.cpu.op_class_0::SimdSha256Hash2              0      0.00%     46.46% # Class of committed instruction
system.cpu.op_class_0::SimdShaSigma2                0      0.00%     46.46% # Class of committed instruction
system.cpu.op_class_0::SimdShaSigma3                0      0.00%     46.46% # Class of committed instruction
system.cpu.op_class_0::SimdPredAlu                  0      0.00%     46.46% # Class of committed instruction
system.cpu.op_class_0::MemRead               42690537     42.61%     89.06% # Class of committed instruction
system.cpu.op_class_0::MemWrite              10958215     10.94%    100.00% # Class of committed instruction
system.cpu.op_class_0::FloatMemRead                 0      0.00%    100.00% # Class of committed instruction
system.cpu.op_class_0::FloatMemWrite                0      0.00%    100.00% # Class of committed instruction
system.cpu.op_class_0::IprAccess                    0      0.00%    100.00% # Class of committed instruction
system.cpu.op_class_0::InstPrefetch                 0      0.00%    100.00% # Class of committed instruction
system.cpu.op_class_0::total                100196355                       # Class of committed instruction
system.cpu.tickCycles                       132367805                       # Number of cycles that the object actually ticked
system.cpu.workload.numSyscalls                    85                       # Number of system calls
system.membus.snoop_filter.hit_multi_requests            0                       # Number of requests hitting in the snoop filter with multiple (>1) holders of the requested data.
system.membus.snoop_filter.hit_multi_snoops            0                       # Number of snoops hitting in the snoop filter with multiple (>1) holders of the requested data.
system.membus.snoop_filter.hit_single_requests       168706                       # Number of requests hitting in the snoop filter with a single holder of the requested data.
system.membus.snoop_filter.hit_single_snoops            0                       # Number of snoops hitting in the snoop filter with a single holder of the requested data.
system.membus.snoop_filter.tot_requests        370511                       # Total number of requests made to the snoop filter.
system.membus.snoop_filter.tot_snoops               0                       # Total number of snoops made to the snoop filter.
system.tol2bus.snoop_filter.hit_multi_requests           75                       # Number of requests hitting in the snoop filter with multiple (>1) holders of the requested data.
system.tol2bus.snoop_filter.hit_multi_snoops            0                       # Number of snoops hitting in the snoop filter with multiple (>1) holders of the requested data.
system.tol2bus.snoop_filter.hit_single_requests       495333                       # Number of requests hitting in the snoop filter with a single holder of the requested data.
system.tol2bus.snoop_filter.hit_single_snoops          482                       # Number of snoops hitting in the snoop filter with a single holder of the requested data.
system.tol2bus.snoop_filter.tot_requests       992126                       # Total number of requests made to the snoop filter.
system.tol2bus.snoop_filter.tot_snoops            482                       # Total number of snoops made to the snoop filter.
system.clk_domain.clock                          1000                       # Clock period in ticks
system.cpu.branchPred.lookups                 4486010                       # Number of BP lookups
system.cpu.branchPred.condPredicted           3735696                       # Number of conditional branches predicted
system.cpu.branchPred.condIncorrect             81005                       # Number of conditional branches incorrect
system.cpu.branchPred.BTBLookups              2103824                       # Number of BTB lookups
system.cpu.branchPred.BTBHits                 2101818                       # Number of BTB hits
system.cpu.branchPred.BTBHitPct             99.904650                       # BTB Hit Percentage
system.cpu.branchPred.RASUsed                   65380                       # Number of times the RAS was used to get a target.
system.cpu.branchPred.RASIncorrect                 14                       # Number of incorrect RAS predictions.
system.cpu.branchPred.indirectLookups             692                       # Number of indirect predictor lookups.
system.cpu.branchPred.indirectHits                288                       # Number of indirect target hits.
system.cpu.branchPred.indirectMisses              404                       # Number of indirect misses.
system.cpu.branchPred.indirectMispredicted          171                       # Number of mispredicted indirect branches.
system.cpu.dcache.demand_hits::.cpu.data     51534141                       # number of demand (read+write) hits
system.cpu.dcache.demand_hits::total         51534141                       # number of demand (read+write) hits
system.cpu.dcache.overall_hits::.cpu.data     51534651                       # number of overall hits
system.cpu.dcache.overall_hits::total        51534651                       # number of overall hits
system.cpu.dcache.demand_misses::.cpu.data       550568                       # number of demand (read+write) misses
system.cpu.dcache.demand_misses::total         550568                       # number of demand (read+write) misses
system.cpu.dcache.overall_misses::.cpu.data       558477                       # number of overall misses
system.cpu.dcache.overall_misses::total        558477                       # number of overall misses
system.cpu.dcache.demand_miss_latency::.cpu.data  22283781000                       # number of demand (read+write) miss cycles
system.cpu.dcache.demand_miss_latency::total  22283781000                       # number of demand (read+write) miss cycles
system.cpu.dcache.overall_miss_latency::.cpu.data  22283781000                       # number of overall miss cycles
system.cpu.dcache.overall_miss_latency::total  22283781000                       # number of overall miss cycles
system.cpu.dcache.demand_accesses::.cpu.data     52084709                       # number of demand (read+write) accesses
system.cpu.dcache.demand_accesses::total     52084709                       # number of demand (read+write) accesses
system.cpu.dcache.overall_accesses::.cpu.data     52093128                       # number of overall (read+write) accesses
system.cpu.dcache.overall_accesses::total     52093128                       # number of overall (read+write) accesses
system.cpu.dcache.demand_miss_rate::.cpu.data     0.010571                       # miss rate for demand accesses
system.cpu.dcache.demand_miss_rate::total     0.010571                       # miss rate for demand accesses
system.cpu.dcache.overall_miss_rate::.cpu.data     0.010721                       # miss rate for overall accesses
system.cpu.dcache.overall_miss_rate::total     0.010721                       # miss rate for overall accesses
system.cpu.dcache.demand_avg_miss_latency::.cpu.data 40474.166679                       # average overall miss latency
system.cpu.dcache.demand_avg_miss_latency::total 40474.166679                       # average overall miss latency
system.cpu.dcache.overall_avg_miss_latency::.cpu.data 39900.982493                       # average overall miss latency
system.cpu.dcache.overall_avg_miss_latency::total 39900.982493                       # average overall miss latency
system.cpu.dcache.blocked_cycles::no_mshrs       213228                       # number of cycles access was blocked
system.cpu.dcache.blocked_cycles::no_targets            0                       # number of cycles access was blocked
system.cpu.dcache.blocked::no_mshrs              3232                       # number of cycles access was blocked
system.cpu.dcache.blocked::no_targets               0                       # number of cycles access was blocked
system.cpu.dcache.avg_blocked_cycles::no_mshrs    65.974010                       # average number of cycles each access was blocked
system.cpu.dcache.avg_blocked_cycles::no_targets          nan                       # average number of cycles each access was blocked
system.cpu.dcache.writebacks::.writebacks       420714                       # number of writebacks
system.cpu.dcache.writebacks::total            420714                       # number of writebacks
system.cpu.dcache.demand_mshr_hits::.cpu.data        62451                       # number of demand (read+write) MSHR hits
system.cpu.dcache.demand_mshr_hits::total        62451                       # number of demand (read+write) MSHR hits
system.cpu.dcache.overall_mshr_hits::.cpu.data        62451                       # number of overall MSHR hits
system.cpu.dcache.overall_mshr_hits::total        62451                       # number of overall MSHR hits
system.cpu.dcache.demand_mshr_misses::.cpu.data       488117                       # number of demand (read+write) MSHR misses
system.cpu.dcache.demand_mshr_misses::total       488117                       # number of demand (read+write) MSHR misses
system.cpu.dcache.overall_mshr_misses::.cpu.data       496022                       # number of overall MSHR misses
system.cpu.dcache.overall_mshr_misses::total       496022                       # number of overall MSHR misses
system.cpu.dcache.demand_mshr_miss_latency::.cpu.data  20161680500                       # number of demand (read+write) MSHR miss cycles
system.cpu.dcache.demand_mshr_miss_latency::total  20161680500                       # number of demand (read+write) MSHR miss cycles
system.cpu.dcache.overall_mshr_miss_latency::.cpu.data  20856435999                       # number of overall MSHR miss cycles
system.cpu.dcache.overall_mshr_miss_latency::total  20856435999                       # number of overall MSHR miss cycles
system.cpu.dcache.demand_mshr_miss_rate::.cpu.data     0.009372                       # mshr miss rate for demand accesses
system.cpu.dcache.demand_mshr_miss_rate::total     0.009372                       # mshr miss rate for demand accesses
system.cpu.dcache.overall_mshr_miss_rate::.cpu.data     0.009522                       # mshr miss rate for overall accesses
system.cpu.dcache.overall_mshr_miss_rate::total     0.009522                       # mshr miss rate for overall accesses
system.cpu.dcache.demand_avg_mshr_miss_latency::.cpu.data 41305.016011                       # average overall mshr miss latency
system.cpu.dcache.demand_avg_mshr_miss_latency::total 41305.016011                       # average overall mshr miss latency
system.cpu.dcache.overall_avg_mshr_miss_latency::.cpu.data 42047.401121                       # average overall mshr miss latency
system.cpu.dcache.overall_avg_mshr_miss_latency::total 42047.401121                       # average overall mshr miss latency
system.cpu.dcache.replacements                 494998                       # number of replacements
system.cpu.dcache.ReadReq_hits::.cpu.data     40908056                       # number of ReadReq hits
system.cpu.dcache.ReadReq_hits::total        40908056                       # number of ReadReq hits
system.cpu.dcache.ReadReq_misses::.cpu.data       227571                       # number of ReadReq misses
system.cpu.dcache.ReadReq_misses::total        227571                       # number of ReadReq misses
system.cpu.dcache.ReadReq_miss_latency::.cpu.data   6900555000                       # number of ReadReq miss cycles
system.cpu.dcache.ReadReq_miss_latency::total   6900555000                       # number of ReadReq miss cycles
system.cpu.dcache.ReadReq_accesses::.cpu.data     41135627                       # number of ReadReq accesses(hits+misses)
system.cpu.dcache.ReadReq_accesses::total     41135627                       # number of ReadReq accesses(hits+misses)
system.cpu.dcache.ReadReq_miss_rate::.cpu.data     0.005532                       # miss rate for ReadReq accesses
system.cpu.dcache.ReadReq_miss_rate::total     0.005532                       # miss rate for ReadReq accesses
system.cpu.dcache.ReadReq_avg_miss_latency::.cpu.data 30322.646559                       # average ReadReq miss latency
system.cpu.dcache.ReadReq_avg_miss_latency::total 30322.646559                       # average ReadReq miss latency
system.cpu.dcache.ReadReq_mshr_hits::.cpu.data          579                       # number of ReadReq MSHR hits
system.cpu.dcache.ReadReq_mshr_hits::total          579                       # number of ReadReq MSHR hits
system.cpu.dcache.ReadReq_mshr_misses::.cpu.data       226992                       # number of ReadReq MSHR misses
system.cpu.dcache.ReadReq_mshr_misses::total       226992                       # number of ReadReq MSHR misses
system.cpu.dcache.ReadReq_mshr_miss_latency::.cpu.data   6647505500                       # number of ReadReq MSHR miss cycles
system.cpu.dcache.ReadReq_mshr_miss_latency::total   6647505500                       # number of ReadReq MSHR miss cycles
system.cpu.dcache.ReadReq_mshr_miss_rate::.cpu.data     0.005518                       # mshr miss rate for ReadReq accesses
system.cpu.dcache.ReadReq_mshr_miss_rate::total     0.005518                       # mshr miss rate for ReadReq accesses
system.cpu.dcache.ReadReq_avg_mshr_miss_latency::.cpu.data 29285.197276                       # average ReadReq mshr miss latency
system.cpu.dcache.ReadReq_avg_mshr_miss_latency::total 29285.197276                       # average ReadReq mshr miss latency
system.cpu.dcache.WriteReq_hits::.cpu.data     10626085                       # number of WriteReq hits
system.cpu.dcache.WriteReq_hits::total       10626085                       # number of WriteReq hits
system.cpu.dcache.WriteReq_misses::.cpu.data       322997                       # number of WriteReq misses
system.cpu.dcache.WriteReq_misses::total       322997                       # number of WriteReq misses
system.cpu.dcache.WriteReq_miss_latency::.cpu.data  15383226000                       # number of WriteReq miss cycles
system.cpu.dcache.WriteReq_miss_latency::total  15383226000                       # number of WriteReq miss cycles
system.cpu.dcache.WriteReq_accesses::.cpu.data     10949082                       # number of WriteReq accesses(hits+misses)
system.cpu.dcache.WriteReq_accesses::total     10949082                       # number of WriteReq accesses(hits+misses)
system.cpu.dcache.WriteReq_miss_rate::.cpu.data     0.029500                       # miss rate for WriteReq accesses
system.cpu.dcache.WriteReq_miss_rate::total     0.029500                       # miss rate for WriteReq accesses
system.cpu.dcache.WriteReq_avg_miss_latency::.cpu.data 47626.529039                       # average WriteReq miss latency
system.cpu.dcache.WriteReq_avg_miss_latency::total 47626.529039                       # average WriteReq miss latency
system.cpu.dcache.WriteReq_mshr_hits::.cpu.data        61872                       # number of WriteReq MSHR hits
system.cpu.dcache.WriteReq_mshr_hits::total        61872                       # number of WriteReq MSHR hits
system.cpu.dcache.WriteReq_mshr_misses::.cpu.data       261125                       # number of WriteReq MSHR misses
system.cpu.dcache.WriteReq_mshr_misses::total       261125                       # number of WriteReq MSHR misses
system.cpu.dcache.WriteReq_mshr_miss_latency::.cpu.data  13514175000                       # number of WriteReq MSHR miss cycles
system.cpu.dcache.WriteReq_mshr_miss_latency::total  13514175000                       # number of WriteReq MSHR miss cycles
system.cpu.dcache.WriteReq_mshr_miss_rate::.cpu.data     0.023849                       # mshr miss rate for WriteReq accesses
system.cpu.dcache.WriteReq_mshr_miss_rate::total     0.023849                       # mshr miss rate for WriteReq accesses
system.cpu.dcache.WriteReq_avg_mshr_miss_latency::.cpu.data 51753.662039                       # average WriteReq mshr miss latency
system.cpu.dcache.WriteReq_avg_mshr_miss_latency::total 51753.662039                       # average WriteReq mshr miss latency
system.cpu.dcache.SoftPFReq_hits::.cpu.data          510                       # number of SoftPFReq hits
system.cpu.dcache.SoftPFReq_hits::total           510                       # number of SoftPFReq hits
system.cpu.dcache.SoftPFReq_misses::.cpu.data         7909                       # number of SoftPFReq misses
system.cpu.dcache.SoftPFReq_misses::total         7909                       # number of SoftPFReq misses
system.cpu.dcache.SoftPFReq_accesses::.cpu.data         8419                       # number of SoftPFReq accesses(hits+misses)
system.cpu.dcache.SoftPFReq_accesses::total         8419                       # number of SoftPFReq accesses(hits+misses)
system.cpu.dcache.SoftPFReq_miss_rate::.cpu.data     0.939423                       # miss rate for SoftPFReq accesses
system.cpu.dcache.SoftPFReq_miss_rate::total     0.939423                       # miss rate for SoftPFReq accesses
system.cpu.dcache.SoftPFReq_mshr_misses::.cpu.data         7905                       # number of SoftPFReq MSHR misses
system.cpu.dcache.SoftPFReq_mshr_misses::total         7905                       # number of SoftPFReq MSHR misses
system.cpu.dcache.SoftPFReq_mshr_miss_latency::.cpu.data    694755499                       # number of SoftPFReq MSHR miss cycles
system.cpu.dcache.SoftPFReq_mshr_miss_latency::total    694755499                       # number of SoftPFReq MSHR miss cycles
system.cpu.dcache.SoftPFReq_mshr_miss_rate::.cpu.data     0.938948                       # mshr miss rate for SoftPFReq accesses
system.cpu.dcache.SoftPFReq_mshr_miss_rate::total     0.938948                       # mshr miss rate for SoftPFReq accesses
system.cpu.dcache.SoftPFReq_avg_mshr_miss_latency::.cpu.data 87888.108665                       # average SoftPFReq mshr miss latency
system.cpu.dcache.SoftPFReq_avg_mshr_miss_latency::total 87888.108665                       # average SoftPFReq mshr miss latency
system.cpu.dcache.LoadLockedReq_hits::.cpu.data           38                       # number of LoadLockedReq hits
system.cpu.dcache.LoadLockedReq_hits::total           38                       # number of LoadLockedReq hits
system.cpu.dcache.LoadLockedReq_accesses::.cpu.data           38                       # number of LoadLockedReq accesses(hits+misses)
system.cpu.dcache.LoadLockedReq_accesses::total           38                       # number of LoadLockedReq accesses(hits+misses)
system.cpu.dcache.StoreCondReq_hits::.cpu.data           38                       # number of StoreCondReq hits
system.cpu.dcache.StoreCondReq_hits::total           38                       # number of StoreCondReq hits
system.cpu.dcache.StoreCondReq_accesses::.cpu.data           38                       # number of StoreCondReq accesses(hits+misses)
system.cpu.dcache.StoreCondReq_accesses::total           38                       # number of StoreCondReq accesses(hits+misses)
system.cpu.dcache.power_state.pwrStateResidencyTicks::UNDEFINED  81709372000                       # Cumulative time (in ticks) in various power states
system.cpu.dcache.tags.tagsinuse          1014.989216                       # Cycle average of tags in use
system.cpu.dcache.tags.total_refs            52030749                       # Total number of references to valid blocks.
system.cpu.dcache.tags.sampled_refs            496022                       # Sample count of references to valid blocks.
system.cpu.dcache.tags.avg_refs            104.896051                       # Average number of references to valid blocks.
system.cpu.dcache.tags.warmup_cycle            176500                       # Cycle when the warmup percentage was hit.
system.cpu.dcache.tags.occ_blocks::.cpu.data  1014.989216                       # Average occupied blocks per requestor
system.cpu.dcache.tags.occ_percent::.cpu.data     0.991200                       # Average percentage of cache occupancy
system.cpu.dcache.tags.occ_percent::total     0.991200                       # Average percentage of cache occupancy
system.cpu.dcache.tags.occ_task_id_blocks::1024         1024                       # Occupied blocks per task id
system.cpu.dcache.tags.age_task_id_blocks_1024::0           66                       # Occupied blocks per task id
system.cpu.dcache.tags.age_task_id_blocks_1024::1          795                       # Occupied blocks per task id
system.cpu.dcache.tags.age_task_id_blocks_1024::2          160                       # Occupied blocks per task id
system.cpu.dcache.tags.age_task_id_blocks_1024::3            1                       # Occupied blocks per task id
system.cpu.dcache.tags.age_task_id_blocks_1024::4            2                       # Occupied blocks per task id
system.cpu.dcache.tags.occ_task_id_percent::1024            1                       # Percentage of cache occupancy per task id
system.cpu.dcache.tags.tag_accesses       26672216470                       # Number of tag accesses
system.cpu.dcache.tags.data_accesses      26672216470                       # Number of data accesses
system.cpu.dcache.tags.power_state.pwrStateResidencyTicks::UNDEFINED  81709372000                       # Cumulative time (in ticks) in various power states
system.cpu.dtb.instHits                             0                       # ITB inst hits
system.cpu.dtb.instMisses                           0                       # ITB inst misses
system.cpu.dtb.readHits                             0                       # DTB read hits
system.cpu.dtb.readMisses                           0                       # DTB read misses
system.cpu.dtb.writeHits                            0                       # DTB write hits
system.cpu.dtb.writeMisses                          0                       # DTB write misses
system.cpu.dtb.inserts                              0                       # Number of times an entry is inserted into the TLB
system.cpu.dtb.flushTlb                             0                       # Number of times complete TLB was flushed
system.cpu.dtb.flushTlbMva                          0                       # Number of times TLB was flushed by MVA
system.cpu.dtb.flushTlbMvaAsid                      0                       # Number of times TLB was flushed by MVA & ASID
system.cpu.dtb.flushTlbAsid                         0                       # Number of times TLB was flushed by ASID
system.cpu.dtb.flushedEntries                       0                       # Number of entries that have been flushed from TLB
system.cpu.dtb.alignFaults                          0                       # Number of TLB faults due to alignment restrictions
system.cpu.dtb.prefetchFaults                       0                       # Number of TLB faults due to prefetch
system.cpu.dtb.domainFaults                         0                       # Number of TLB faults due to domain restrictions
system.cpu.dtb.permsFaults                          0                       # Number of TLB faults due to permissions restrictions
system.cpu.dtb.readAccesses                         0                       # DTB read accesses
system.cpu.dtb.writeAccesses                        0                       # DTB write accesses
system.cpu.dtb.instAccesses                         0                       # ITB inst accesses
system.cpu.dtb.hits                                 0                       # Total TLB (inst and data) hits
system.cpu.dtb.misses                               0                       # Total TLB (inst and data) misses
system.cpu.dtb.accesses                             0                       # Total TLB (inst and data) accesses
system.cpu.dtb.stage2_mmu.stage2_tlb.instHits            0                       # ITB inst hits
system.cpu.dtb.stage2_mmu.stage2_tlb.instMisses            0                       # ITB inst misses
system.cpu.dtb.stage2_mmu.stage2_tlb.readHits            0                       # DTB read hits
system.cpu.dtb.stage2_mmu.stage2_tlb.readMisses            0                       # DTB read misses
system.cpu.dtb.stage2_mmu.stage2_tlb.writeHits            0                       # DTB write hits
system.cpu.dtb.stage2_mmu.stage2_tlb.writeMisses            0                       # DTB write misses
system.cpu.dtb.stage2_mmu.stage2_tlb.inserts            0                       # Number of times an entry is inserted into the TLB
system.cpu.dtb.stage2_mmu.stage2_tlb.flushTlb            0                       # Number of times complete TLB was flushed
system.cpu.dtb.stage2_mmu.stage2_tlb.flushTlbMva            0                       # Number of times TLB was flushed by MVA
system.cpu.dtb.stage2_mmu.stage2_tlb.flushTlbMvaAsid            0                       # Number of times TLB was flushed by MVA & ASID
system.cpu.dtb.stage2_mmu.stage2_tlb.flushTlbAsid            0                       # Number of times TLB was flushed by ASID
system.cpu.dtb.stage2_mmu.stage2_tlb.flushedEntries            0                       # Number of entries that have been flushed from TLB
system.cpu.dtb.stage2_mmu.stage2_tlb.alignFaults            0                       # Number of TLB faults due to alignment restrictions
system.cpu.dtb.stage2_mmu.stage2_tlb.prefetchFaults            0                       # Number of TLB faults due to prefetch
system.cpu.dtb.stage2_mmu.stage2_tlb.domainFaults            0                       # Number of TLB faults due to domain restrictions
system.cpu.dtb.stage2_mmu.stage2_tlb.permsFaults            0                       # Number of TLB faults due to permissions restrictions
system.cpu.dtb.stage2_mmu.stage2_tlb.readAccesses            0                       # DTB read accesses
system.cpu.dtb.stage2_mmu.stage2_tlb.writeAccesses            0                       # DTB write accesses
system.cpu.dtb.stage2_mmu.stage2_tlb.instAccesses            0                       # ITB inst accesses
system.cpu.dtb.stage2_mmu.stage2_tlb.hits            0                       # Total TLB (inst and data) hits
system.cpu.dtb.stage2_mmu.stage2_tlb.misses            0                       # Total TLB (inst and data) misses
system.cpu.dtb.stage2_mmu.stage2_tlb.accesses            0                       # Total TLB (inst and data) accesses
system.cpu.dtb.stage2_mmu.stage2_tlb.walker.walks            0                       # Table walker walks requested
system.cpu.dtb.stage2_mmu.stage2_tlb.walker.requestOrigin_Requested::Data            0                       # Table walker requests started/completed, data/inst
system.cpu.dtb.stage2_mmu.stage2_tlb.walker.requestOrigin_Requested::Inst            0                       # Table walker requests started/completed, data/inst
system.cpu.dtb.stage2_mmu.stage2_tlb.walker.requestOrigin_Requested::total            0                       # Table walker requests started/completed, data/inst
system.cpu.dtb.stage2_mmu.stage2_tlb.walker.requestOrigin_Completed::Data            0                       # Table walker requests started/completed, data/inst
system.cpu.dtb.stage2_mmu.stage2_tlb.walker.requestOrigin_Completed::Inst            0                       # Table walker requests started/completed, data/inst
system.cpu.dtb.stage2_mmu.stage2_tlb.walker.requestOrigin_Completed::total            0                       # Table walker requests started/completed, data/inst
system.cpu.dtb.stage2_mmu.stage2_tlb.walker.requestOrigin::total            0                       # Table walker requests started/completed, data/inst
system.cpu.dtb.stage2_mmu.stage2_tlb.walker.power_state.pwrStateResidencyTicks::UNDEFINED  81709372000                       # Cumulative time (in ticks) in various power states
system.cpu.dtb.walker.walks                         0                       # Table walker walks requested
system.cpu.dtb.walker.requestOrigin_Requested::Data            0                       # Table walker requests started/completed, data/inst
system.cpu.dtb.walker.requestOrigin_Requested::Inst            0                       # Table walker requests started/completed, data/inst
system.cpu.dtb.walker.requestOrigin_Requested::total            0                       # Table walker requests started/completed, data/inst
system.cpu.dtb.walker.requestOrigin_Completed::Data            0                       # Table walker requests started/completed, data/inst
system.cpu.dtb.walker.requestOrigin_Completed::Inst            0                       # Table walker requests started/completed, data/inst
system.cpu.dtb.walker.requestOrigin_Completed::total            0                       # Table walker requests started/completed, data/inst
system.cpu.dtb.walker.requestOrigin::total            0                       # Table walker requests started/completed, data/inst
system.cpu.dtb.walker.power_state.pwrStateResidencyTicks::UNDEFINED  81709372000                       # Cumulative time (in ticks) in various power states
system.cpu.fetch2.intInstructions            42684354                       # Number of integer instructions successfully decoded
system.cpu.fetch2.fpInstructions                    0                       # Number of floating point instructions successfully decoded
system.cpu.fetch2.vecInstructions                   0                       # Number of SIMD instructions successfully decoded
system.cpu.fetch2.loadInstructions           43474209                       # Number of memory load instructions successfully decoded
system.cpu.fetch2.storeInstructions          11024322                       # Number of memory store instructions successfully decoded
system.cpu.fetch2.amoInstructions                   0                       # Number of memory atomic instructions successfully decoded
system.cpu.icache.demand_hits::.cpu.inst     10277354                       # number of demand (read+write) hits
system.cpu.icache.demand_hits::total         10277354                       # number of demand (read+write) hits
system.cpu.icache.overall_hits::.cpu.inst     10277354                       # number of overall hits
system.cpu.icache.overall_hits::total        10277354                       # number of overall hits
system.cpu.icache.demand_misses::.cpu.inst          773                       # number of demand (read+write) misses
system.cpu.icache.demand_misses::total            773                       # number of demand (read+write) misses
system.cpu.icache.overall_misses::.cpu.inst          773                       # number of overall misses
system.cpu.icache.overall_misses::total           773                       # number of overall misses
system.cpu.icache.demand_miss_latency::.cpu.inst     54774500                       # number of demand (read+write) miss cycles
system.cpu.icache.demand_miss_latency::total     54774500                       # number of demand (read+write) miss cycles
system.cpu.icache.overall_miss_latency::.cpu.inst     54774500                       # number of overall miss cycles
system.cpu.icache.overall_miss_latency::total     54774500                       # number of overall miss cycles
system.cpu.icache.demand_accesses::.cpu.inst     10278127                       # number of demand (read+write) accesses
system.cpu.icache.demand_accesses::total     10278127                       # number of demand (read+write) accesses
system.cpu.icache.overall_accesses::.cpu.inst     10278127                       # number of overall (read+write) accesses
system.cpu.icache.overall_accesses::total     10278127                       # number of overall (read+write) accesses
system.cpu.icache.demand_miss_rate::.cpu.inst     0.000075                       # miss rate for demand accesses
system.cpu.icache.demand_miss_rate::total     0.000075                       # miss rate for demand accesses
system.cpu.icache.overall_miss_rate::.cpu.inst     0.000075                       # miss rate for overall accesses
system.cpu.icache.overall_miss_rate::total     0.000075                       # miss rate for overall accesses
system.cpu.icache.demand_avg_miss_latency::.cpu.inst 70859.637775                       # average overall miss latency
system.cpu.icache.demand_avg_miss_latency::total 70859.637775                       # average overall miss latency
system.cpu.icache.overall_avg_miss_latency::.cpu.inst 70859.637775                       # average overall miss latency
system.cpu.icache.overall_avg_miss_latency::total 70859.637775                       # average overall miss latency
system.cpu.icache.blocked_cycles::no_mshrs            0                       # number of cycles access was blocked
system.cpu.icache.blocked_cycles::no_targets            0                       # number of cycles access was blocked
system.cpu.icache.blocked::no_mshrs                 0                       # number of cycles access was blocked
system.cpu.icache.blocked::no_targets               0                       # number of cycles access was blocked
system.cpu.icache.avg_blocked_cycles::no_mshrs          nan                       # average number of cycles each access was blocked
system.cpu.icache.avg_blocked_cycles::no_targets          nan                       # average number of cycles each access was blocked
system.cpu.icache.writebacks::.writebacks          333                       # number of writebacks
system.cpu.icache.writebacks::total               333                       # number of writebacks
system.cpu.icache.demand_mshr_misses::.cpu.inst          773                       # number of demand (read+write) MSHR misses
system.cpu.icache.demand_mshr_misses::total          773                       # number of demand (read+write) MSHR misses
system.cpu.icache.overall_mshr_misses::.cpu.inst          773                       # number of overall MSHR misses
system.cpu.icache.overall_mshr_misses::total          773                       # number of overall MSHR misses
system.cpu.icache.demand_mshr_miss_latency::.cpu.inst     54001500                       # number of demand (read+write) MSHR miss cycles
system.cpu.icache.demand_mshr_miss_latency::total     54001500                       # number of demand (read+write) MSHR miss cycles
system.cpu.icache.overall_mshr_miss_latency::.cpu.inst     54001500                       # number of overall MSHR miss cycles
system.cpu.icache.overall_mshr_miss_latency::total     54001500                       # number of overall MSHR miss cycles
system.cpu.icache.demand_mshr_miss_rate::.cpu.inst     0.000075                       # mshr miss rate for demand accesses
system.cpu.icache.demand_mshr_miss_rate::total     0.000075                       # mshr miss rate for demand accesses
system.cpu.icache.overall_mshr_miss_rate::.cpu.inst     0.000075                       # mshr miss rate for overall accesses
system.cpu.icache.overall_mshr_miss_rate::total     0.000075                       # mshr miss rate for overall accesses
system.cpu.icache.demand_avg_mshr_miss_latency::.cpu.inst 69859.637775                       # average overall mshr miss latency
system.cpu.icache.demand_avg_mshr_miss_latency::total 69859.637775                       # average overall mshr miss latency
system.cpu.icache.overall_avg_mshr_miss_latency::.cpu.inst 69859.637775                       # average overall mshr miss latency
system.cpu.icache.overall_avg_mshr_miss_latency::total 69859.637775                       # average overall mshr miss latency
system.cpu.icache.replacements                    333                       # number of replacements
system.cpu.icache.ReadReq_hits::.cpu.inst     10277354                       # number of ReadReq hits
system.cpu.icache.ReadReq_hits::total        10277354                       # number of ReadReq hits
system.cpu.icache.ReadReq_misses::.cpu.inst          773                       # number of ReadReq misses
system.cpu.icache.ReadReq_misses::total           773                       # number of ReadReq misses
system.cpu.icache.ReadReq_miss_latency::.cpu.inst     54774500                       # number of ReadReq miss cycles
system.cpu.icache.ReadReq_miss_latency::total     54774500                       # number of ReadReq miss cycles
system.cpu.icache.ReadReq_accesses::.cpu.inst     10278127                       # number of ReadReq accesses(hits+misses)
system.cpu.icache.ReadReq_accesses::total     10278127                       # number of ReadReq accesses(hits+misses)
system.cpu.icache.ReadReq_miss_rate::.cpu.inst     0.000075                       # miss rate for ReadReq accesses
system.cpu.icache.ReadReq_miss_rate::total     0.000075                       # miss rate for ReadReq accesses
system.cpu.icache.ReadReq_avg_miss_latency::.cpu.inst 70859.637775                       # average ReadReq miss latency
system.cpu.icache.ReadReq_avg_miss_latency::total 70859.637775                       # average ReadReq miss latency
system.cpu.icache.ReadReq_mshr_misses::.cpu.inst          773                       # number of ReadReq MSHR misses
system.cpu.icache.ReadReq_mshr_misses::total          773                       # number of ReadReq MSHR misses
system.cpu.icache.ReadReq_mshr_miss_latency::.cpu.inst     54001500                       # number of ReadReq MSHR miss cycles
system.cpu.icache.ReadReq_mshr_miss_latency::total     54001500                       # number of ReadReq MSHR miss cycles
system.cpu.icache.ReadReq_mshr_miss_rate::.cpu.inst     0.000075                       # mshr miss rate for ReadReq accesses
system.cpu.icache.ReadReq_mshr_miss_rate::total     0.000075                       # mshr miss rate for ReadReq accesses
system.cpu.icache.ReadReq_avg_mshr_miss_latency::.cpu.inst 69859.637775                       # average ReadReq mshr miss latency
system.cpu.icache.ReadReq_avg_mshr_miss_latency::total 69859.637775                       # average ReadReq mshr miss latency
system.cpu.icache.power_state.pwrStateResidencyTicks::UNDEFINED  81709372000                       # Cumulative time (in ticks) in various power states
system.cpu.icache.tags.tagsinuse           355.308660                       # Cycle average of tags in use
system.cpu.icache.tags.total_refs            10278127                       # Total number of references to valid blocks.
system.cpu.icache.tags.sampled_refs               773                       # Sample count of references to valid blocks.
system.cpu.icache.tags.avg_refs          13296.412678                       # Average number of references to valid blocks.
system.cpu.icache.tags.warmup_cycle             87500                       # Cycle when the warmup percentage was hit.
system.cpu.icache.tags.occ_blocks::.cpu.inst   355.308660                       # Average occupied blocks per requestor
system.cpu.icache.tags.occ_percent::.cpu.inst     0.693962                       # Average percentage of cache occupancy
system.cpu.icache.tags.occ_percent::total     0.693962                       # Average percentage of cache occupancy
system.cpu.icache.tags.occ_task_id_blocks::1024          440                       # Occupied blocks per task id
system.cpu.icache.tags.age_task_id_blocks_1024::3          107                       # Occupied blocks per task id
system.cpu.icache.tags.age_task_id_blocks_1024::4          333                       # Occupied blocks per task id
system.cpu.icache.tags.occ_task_id_percent::1024     0.859375                       # Percentage of cache occupancy per task id
system.cpu.icache.tags.tag_accesses          20557027                       # Number of tag accesses
system.cpu.icache.tags.data_accesses         20557027                       # Number of data accesses
system.cpu.icache.tags.power_state.pwrStateResidencyTicks::UNDEFINED  81709372000                       # Cumulative time (in ticks) in various power states
system.cpu.itb.instHits                             0                       # ITB inst hits
system.cpu.itb.instMisses                           0                       # ITB inst misses
system.cpu.itb.readHits                             0                       # DTB read hits
system.cpu.itb.readMisses                           0                       # DTB read misses
system.cpu.itb.writeHits                            0                       # DTB write hits
system.cpu.itb.writeMisses                          0                       # DTB write misses
system.cpu.itb.inserts                              0                       # Number of times an entry is inserted into the TLB
system.cpu.itb.flushTlb                             0                       # Number of times complete TLB was flushed
system.cpu.itb.flushTlbMva                          0                       # Number of times TLB was flushed by MVA
system.cpu.itb.flushTlbMvaAsid                      0                       # Number of times TLB was flushed by MVA & ASID
system.cpu.itb.flushTlbAsid                         0                       # Number of times TLB was flushed by ASID
system.cpu.itb.flushedEntries                       0                       # Number of entries that have been flushed from TLB
system.cpu.itb.alignFaults                          0                       # Number of TLB faults due to alignment restrictions
system.cpu.itb.prefetchFaults                       0                       # Number of TLB faults due to prefetch
system.cpu.itb.domainFaults                         0                       # Number of TLB faults due to domain restrictions
system.cpu.itb.permsFaults                          0                       # Number of TLB faults due to permissions restrictions
system.cpu.itb.readAccesses                         0                       # DTB read accesses
system.cpu.itb.writeAccesses                        0                       # DTB write accesses
system.cpu.itb.instAccesses                         0                       # ITB inst accesses
system.cpu.itb.hits                                 0                       # Total TLB (inst and data) hits
system.cpu.itb.misses                               0                       # Total TLB (inst and data) misses
system.cpu.itb.accesses                             0                       # Total TLB (inst and data) accesses
system.cpu.itb.stage2_mmu.stage2_tlb.instHits            0                       # ITB inst hits
system.cpu.itb.stage2_mmu.stage2_tlb.instMisses            0                       # ITB inst misses
system.cpu.itb.stage2_mmu.stage2_tlb.readHits            0                       # DTB read hits
system.cpu.itb.stage2_mmu.stage2_tlb.readMisses            0                       # DTB read misses
system.cpu.itb.stage2_mmu.stage2_tlb.writeHits            0                       # DTB write hits
system.cpu.itb.stage2_mmu.stage2_tlb.writeMisses            0                       # DTB write misses
system.cpu.itb.stage2_mmu.stage2_tlb.inserts            0                       # Number of times an entry is inserted into the TLB
system.cpu.itb.stage2_mmu.stage2_tlb.flushTlb            0                       # Number of times complete TLB was flushed
system.cpu.itb.stage2_mmu.stage2_tlb.flushTlbMva            0                       # Number of times TLB was flushed by MVA
system.cpu.itb.stage2_mmu.stage2_tlb.flushTlbMvaAsid            0                       # Number of times TLB was flushed by MVA & ASID
system.cpu.itb.stage2_mmu.stage2_tlb.flushTlbAsid            0                       # Number of times TLB was flushed by ASID
system.cpu.itb.stage2_mmu.stage2_tlb.flushedEntries            0                       # Number of entries that have been flushed from TLB
system.cpu.itb.stage2_mmu.stage2_tlb.alignFaults            0                       # Number of TLB faults due to alignment restrictions
system.cpu.itb.stage2_mmu.stage2_tlb.prefetchFaults            0                       # Number of TLB faults due to prefetch
system.cpu.itb.stage2_mmu.stage2_tlb.domainFaults            0                       # Number of TLB faults due to domain restrictions
system.cpu.itb.stage2_mmu.stage2_tlb.permsFaults            0                       # Number of TLB faults due to permissions restrictions
system.cpu.itb.stage2_mmu.stage2_tlb.readAccesses            0                       # DTB read accesses
system.cpu.itb.stage2_mmu.stage2_tlb.writeAccesses            0                       # DTB write accesses
system.cpu.itb.stage2_mmu.stage2_tlb.instAccesses            0                       # ITB inst accesses
system.cpu.itb.stage2_mmu.stage2_tlb.hits            0                       # Total TLB (inst and data) hits
system.cpu.itb.stage2_mmu.stage2_tlb.misses            0                       # Total TLB (inst and data) misses
system.cpu.itb.stage2_mmu.stage2_tlb.accesses            0                       # Total TLB (inst and data) accesses
system.cpu.itb.stage2_mmu.stage2_tlb.walker.walks            0                       # Table walker walks requested
system.cpu.itb.stage2_mmu.stage2_tlb.walker.requestOrigin_Requested::Data            0                       # Table walker requests started/completed, data/inst
system.cpu.itb.stage2_mmu.stage2_tlb.walker.requestOrigin_Requested::Inst            0                       # Table walker requests started/completed, data/inst
system.cpu.itb.stage2_mmu.stage2_tlb.walker.requestOrigin_Requested::total            0                       # Table walker requests started/completed, data/inst
system.cpu.itb.stage2_mmu.stage2_tlb.walker.requestOrigin_Completed::Data            0                       # Table walker requests started/completed, data/inst
system.cpu.itb.stage2_mmu.stage2_tlb.walker.requestOrigin_Completed::Inst            0                       # Table walker requests started/completed, data/inst
system.cpu.itb.stage2_mmu.stage2_tlb.walker.requestOrigin_Completed::total            0                       # Table walker requests started/completed, data/inst
system.cpu.itb.stage2_mmu.stage2_tlb.walker.requestOrigin::total            0                       # Table walker requests started/completed, data/inst
system.cpu.itb.stage2_mmu.stage2_tlb.walker.power_state.pwrStateResidencyTicks::UNDEFINED  81709372000                       # Cumulative time (in ticks) in various power states
system.cpu.itb.walker.walks                         0                       # Table walker walks requested
system.cpu.itb.walker.requestOrigin_Requested::Data            0                       # Table walker requests started/completed, data/inst
system.cpu.itb.walker.requestOrigin_Requested::Inst            0                       # Table walker requests started/completed, data/inst
system.cpu.itb.walker.requestOrigin_Requested::total            0                       # Table walker requests started/completed, data/inst
system.cpu.itb.walker.requestOrigin_Completed::Data            0                       # Table walker requests started/completed, data/inst
system.cpu.itb.walker.requestOrigin_Completed::Inst            0                       # Table walker requests started/completed, data/inst
system.cpu.itb.walker.requestOrigin_Completed::total            0                       # Table walker requests started/completed, data/inst
system.cpu.itb.walker.requestOrigin::total            0                       # Table walker requests started/completed, data/inst
system.cpu.itb.walker.power_state.pwrStateResidencyTicks::UNDEFINED  81709372000                       # Cumulative time (in ticks) in various power states
system.cpu.power_state.pwrStateResidencyTicks::ON  81709372000                       # Cumulative time (in ticks) in various power states
system.cpu.thread_0.numInsts                100000000                       # Number of Instructions committed
system.cpu.thread_0.numOps                  100196355                       # Number of Ops committed
system.cpu.thread_0.numMemRefs                      0                       # Number of Memory References
system.cpu_clk_domain.clock                       500                       # Clock period in ticks
system.cpu_voltage_domain.voltage                   1                       # Voltage in Volts
system.l2.demand_hits::.cpu.inst                  102                       # number of demand (read+write) hits
system.l2.demand_hits::.cpu.data               294877                       # number of demand (read+write) hits
system.l2.demand_hits::total                   294979                       # number of demand (read+write) hits
system.l2.overall_hits::.cpu.inst                 102                       # number of overall hits
system.l2.overall_hits::.cpu.data              294877                       # number of overall hits
system.l2.overall_hits::total                  294979                       # number of overall hits
system.l2.demand_misses::.cpu.inst                671                       # number of demand (read+write) misses
system.l2.demand_misses::.cpu.data             201145                       # number of demand (read+write) misses
system.l2.demand_misses::total                 201816                       # number of demand (read+write) misses
system.l2.overall_misses::.cpu.inst               671                       # number of overall misses
system.l2.overall_misses::.cpu.data            201145                       # number of overall misses
system.l2.overall_misses::total                201816                       # number of overall misses
system.l2.demand_miss_latency::.cpu.inst     51752500                       # number of demand (read+write) miss cycles
system.l2.demand_miss_latency::.cpu.data  17014260000                       # number of demand (read+write) miss cycles
system.l2.demand_miss_latency::total      17066012500                       # number of demand (read+write) miss cycles
system.l2.overall_miss_latency::.cpu.inst     51752500                       # number of overall miss cycles
system.l2.overall_miss_latency::.cpu.data  17014260000                       # number of overall miss cycles
system.l2.overall_miss_latency::total     17066012500                       # number of overall miss cycles
system.l2.demand_accesses::.cpu.inst              773                       # number of demand (read+write) accesses
system.l2.demand_accesses::.cpu.data           496022                       # number of demand (read+write) accesses
system.l2.demand_accesses::total               496795                       # number of demand (read+write) accesses
system.l2.overall_accesses::.cpu.inst             773                       # number of overall (read+write) accesses
system.l2.overall_accesses::.cpu.data          496022                       # number of overall (read+write) accesses
system.l2.overall_accesses::total              496795                       # number of overall (read+write) accesses
system.l2.demand_miss_rate::.cpu.inst        0.868047                       # miss rate for demand accesses
system.l2.demand_miss_rate::.cpu.data        0.405516                       # miss rate for demand accesses
system.l2.demand_miss_rate::total            0.406236                       # miss rate for demand accesses
system.l2.overall_miss_rate::.cpu.inst       0.868047                       # miss rate for overall accesses
system.l2.overall_miss_rate::.cpu.data       0.405516                       # miss rate for overall accesses
system.l2.overall_miss_rate::total           0.406236                       # miss rate for overall accesses
system.l2.demand_avg_miss_latency::.cpu.inst 77127.421759                       # average overall miss latency
system.l2.demand_avg_miss_latency::.cpu.data 84587.039201                       # average overall miss latency
system.l2.demand_avg_miss_latency::total 84562.237385                       # average overall miss latency
system.l2.overall_avg_miss_latency::.cpu.inst 77127.421759                       # average overall miss latency
system.l2.overall_avg_miss_latency::.cpu.data 84587.039201                       # average overall miss latency
system.l2.overall_avg_miss_latency::total 84562.237385                       # average overall miss latency
system.l2.blocked_cycles::no_mshrs                  0                       # number of cycles access was blocked
system.l2.blocked_cycles::no_targets                0                       # number of cycles access was blocked
system.l2.blocked::no_mshrs                         0                       # number of cycles access was blocked
system.l2.blocked::no_targets                       0                       # number of cycles access was blocked
system.l2.avg_blocked_cycles::no_mshrs            nan                       # average number of cycles each access was blocked
system.l2.avg_blocked_cycles::no_targets          nan                       # average number of cycles each access was blocked
system.l2.writebacks::.writebacks              111027                       # number of writebacks
system.l2.writebacks::total                    111027                       # number of writebacks
system.l2.demand_mshr_hits::.cpu.data               6                       # number of demand (read+write) MSHR hits
system.l2.demand_mshr_hits::total                   6                       # number of demand (read+write) MSHR hits
system.l2.overall_mshr_hits::.cpu.data              6                       # number of overall MSHR hits
system.l2.overall_mshr_hits::total                  6                       # number of overall MSHR hits
system.l2.demand_mshr_misses::.cpu.inst           671                       # number of demand (read+write) MSHR misses
system.l2.demand_mshr_misses::.cpu.data        201139                       # number of demand (read+write) MSHR misses
system.l2.demand_mshr_misses::total            201810                       # number of demand (read+write) MSHR misses
system.l2.overall_mshr_misses::.cpu.inst          671                       # number of overall MSHR misses
system.l2.overall_mshr_misses::.cpu.data       201139                       # number of overall MSHR misses
system.l2.overall_mshr_misses::total           201810                       # number of overall MSHR misses
system.l2.demand_mshr_miss_latency::.cpu.inst     45042500                       # number of demand (read+write) MSHR miss cycles
system.l2.demand_mshr_miss_latency::.cpu.data  15002492500                       # number of demand (read+write) MSHR miss cycles
system.l2.demand_mshr_miss_latency::total  15047535000                       # number of demand (read+write) MSHR miss cycles
system.l2.overall_mshr_miss_latency::.cpu.inst     45042500                       # number of overall MSHR miss cycles
system.l2.overall_mshr_miss_latency::.cpu.data  15002492500                       # number of overall MSHR miss cycles
system.l2.overall_mshr_miss_latency::total  15047535000                       # number of overall MSHR miss cycles
system.l2.demand_mshr_miss_rate::.cpu.inst     0.868047                       # mshr miss rate for demand accesses
system.l2.demand_mshr_miss_rate::.cpu.data     0.405504                       # mshr miss rate for demand accesses
system.l2.demand_mshr_miss_rate::total       0.406224                       # mshr miss rate for demand accesses
system.l2.overall_mshr_miss_rate::.cpu.inst     0.868047                       # mshr miss rate for overall accesses
system.l2.overall_mshr_miss_rate::.cpu.data     0.405504                       # mshr miss rate for overall accesses
system.l2.overall_mshr_miss_rate::total      0.406224                       # mshr miss rate for overall accesses
system.l2.demand_avg_mshr_miss_latency::.cpu.inst 67127.421759                       # average overall mshr miss latency
system.l2.demand_avg_mshr_miss_latency::.cpu.data 74587.685630                       # average overall mshr miss latency
system.l2.demand_avg_mshr_miss_latency::total 74562.880928                       # average overall mshr miss latency
system.l2.overall_avg_mshr_miss_latency::.cpu.inst 67127.421759                       # average overall mshr miss latency
system.l2.overall_avg_mshr_miss_latency::.cpu.data 74587.685630                       # average overall mshr miss latency
system.l2.overall_avg_mshr_miss_latency::total 74562.880928                       # average overall mshr miss latency
system.l2.replacements                         169182                       # number of replacements
system.l2.WritebackDirty_hits::.writebacks       420714                       # number of WritebackDirty hits
system.l2.WritebackDirty_hits::total           420714                       # number of WritebackDirty hits
system.l2.WritebackDirty_accesses::.writebacks       420714                       # number of WritebackDirty accesses(hits+misses)
system.l2.WritebackDirty_accesses::total       420714                       # number of WritebackDirty accesses(hits+misses)
system.l2.WritebackClean_hits::.writebacks          324                       # number of WritebackClean hits
system.l2.WritebackClean_hits::total              324                       # number of WritebackClean hits
system.l2.WritebackClean_accesses::.writebacks          324                       # number of WritebackClean accesses(hits+misses)
system.l2.WritebackClean_accesses::total          324                       # number of WritebackClean accesses(hits+misses)
system.l2.CleanEvict_mshr_misses::.writebacks            1                       # number of CleanEvict MSHR misses
system.l2.CleanEvict_mshr_misses::total             1                       # number of CleanEvict MSHR misses
system.l2.CleanEvict_mshr_miss_rate::.writebacks          inf                       # mshr miss rate for CleanEvict accesses
system.l2.CleanEvict_mshr_miss_rate::total          inf                       # mshr miss rate for CleanEvict accesses
system.l2.ReadExReq_hits::.cpu.data            125044                       # number of ReadExReq hits
system.l2.ReadExReq_hits::total                125044                       # number of ReadExReq hits
system.l2.ReadExReq_misses::.cpu.data          136081                       # number of ReadExReq misses
system.l2.ReadExReq_misses::total              136081                       # number of ReadExReq misses
system.l2.ReadExReq_miss_latency::.cpu.data  11808288000                       # number of ReadExReq miss cycles
system.l2.ReadExReq_miss_latency::total   11808288000                       # number of ReadExReq miss cycles
system.l2.ReadExReq_accesses::.cpu.data        261125                       # number of ReadExReq accesses(hits+misses)
system.l2.ReadExReq_accesses::total            261125                       # number of ReadExReq accesses(hits+misses)
system.l2.ReadExReq_miss_rate::.cpu.data     0.521134                       # miss rate for ReadExReq accesses
system.l2.ReadExReq_miss_rate::total         0.521134                       # miss rate for ReadExReq accesses
system.l2.ReadExReq_avg_miss_latency::.cpu.data 86773.965506                       # average ReadExReq miss latency
system.l2.ReadExReq_avg_miss_latency::total 86773.965506                       # average ReadExReq miss latency
system.l2.ReadExReq_mshr_misses::.cpu.data       136081                       # number of ReadExReq MSHR misses
system.l2.ReadExReq_mshr_misses::total         136081                       # number of ReadExReq MSHR misses
system.l2.ReadExReq_mshr_miss_latency::.cpu.data  10447478000                       # number of ReadExReq MSHR miss cycles
system.l2.ReadExReq_mshr_miss_latency::total  10447478000                       # number of ReadExReq MSHR miss cycles
system.l2.ReadExReq_mshr_miss_rate::.cpu.data     0.521134                       # mshr miss rate for ReadExReq accesses
system.l2.ReadExReq_mshr_miss_rate::total     0.521134                       # mshr miss rate for ReadExReq accesses
system.l2.ReadExReq_avg_mshr_miss_latency::.cpu.data 76773.965506                       # average ReadExReq mshr miss latency
system.l2.ReadExReq_avg_mshr_miss_latency::total 76773.965506                       # average ReadExReq mshr miss latency
system.l2.ReadCleanReq_hits::.cpu.inst            102                       # number of ReadCleanReq hits
system.l2.ReadCleanReq_hits::total                102                       # number of ReadCleanReq hits
system.l2.ReadCleanReq_misses::.cpu.inst          671                       # number of ReadCleanReq misses
system.l2.ReadCleanReq_misses::total              671                       # number of ReadCleanReq misses
system.l2.ReadCleanReq_miss_latency::.cpu.inst     51752500                       # number of ReadCleanReq miss cycles
system.l2.ReadCleanReq_miss_latency::total     51752500                       # number of ReadCleanReq miss cycles
system.l2.ReadCleanReq_accesses::.cpu.inst          773                       # number of ReadCleanReq accesses(hits+misses)
system.l2.ReadCleanReq_accesses::total            773                       # number of ReadCleanReq accesses(hits+misses)
system.l2.ReadCleanReq_miss_rate::.cpu.inst     0.868047                       # miss rate for ReadCleanReq accesses
system.l2.ReadCleanReq_miss_rate::total      0.868047                       # miss rate for ReadCleanReq accesses
system.l2.ReadCleanReq_avg_miss_latency::.cpu.inst 77127.421759                       # average ReadCleanReq miss latency
system.l2.ReadCleanReq_avg_miss_latency::total 77127.421759                       # average ReadCleanReq miss latency
system.l2.ReadCleanReq_mshr_misses::.cpu.inst          671                       # number of ReadCleanReq MSHR misses
system.l2.ReadCleanReq_mshr_misses::total          671                       # number of ReadCleanReq MSHR misses
system.l2.ReadCleanReq_mshr_miss_latency::.cpu.inst     45042500                       # number of ReadCleanReq MSHR miss cycles
system.l2.ReadCleanReq_mshr_miss_latency::total     45042500                       # number of ReadCleanReq MSHR miss cycles
system.l2.ReadCleanReq_mshr_miss_rate::.cpu.inst     0.868047                       # mshr miss rate for ReadCleanReq accesses
system.l2.ReadCleanReq_mshr_miss_rate::total     0.868047                       # mshr miss rate for ReadCleanReq accesses
system.l2.ReadCleanReq_avg_mshr_miss_latency::.cpu.inst 67127.421759                       # average ReadCleanReq mshr miss latency
system.l2.ReadCleanReq_avg_mshr_miss_latency::total 67127.421759                       # average ReadCleanReq mshr miss latency
system.l2.ReadSharedReq_hits::.cpu.data        169833                       # number of ReadSharedReq hits
system.l2.ReadSharedReq_hits::total            169833                       # number of ReadSharedReq hits
system.l2.ReadSharedReq_misses::.cpu.data        65064                       # number of ReadSharedReq misses
system.l2.ReadSharedReq_misses::total           65064                       # number of ReadSharedReq misses
system.l2.ReadSharedReq_miss_latency::.cpu.data   5205972000                       # number of ReadSharedReq miss cycles
system.l2.ReadSharedReq_miss_latency::total   5205972000                       # number of ReadSharedReq miss cycles
system.l2.ReadSharedReq_accesses::.cpu.data       234897                       # number of ReadSharedReq accesses(hits+misses)
system.l2.ReadSharedReq_accesses::total        234897                       # number of ReadSharedReq accesses(hits+misses)
system.l2.ReadSharedReq_miss_rate::.cpu.data     0.276989                       # miss rate for ReadSharedReq accesses
system.l2.ReadSharedReq_miss_rate::total     0.276989                       # miss rate for ReadSharedReq accesses
system.l2.ReadSharedReq_avg_miss_latency::.cpu.data 80013.094799                       # average ReadSharedReq miss latency
system.l2.ReadSharedReq_avg_miss_latency::total 80013.094799                       # average ReadSharedReq miss latency
system.l2.ReadSharedReq_mshr_hits::.cpu.data            6                       # number of ReadSharedReq MSHR hits
system.l2.ReadSharedReq_mshr_hits::total            6                       # number of ReadSharedReq MSHR hits
system.l2.ReadSharedReq_mshr_misses::.cpu.data        65058                       # number of ReadSharedReq MSHR misses
system.l2.ReadSharedReq_mshr_misses::total        65058                       # number of ReadSharedReq MSHR misses
system.l2.ReadSharedReq_mshr_miss_latency::.cpu.data   4555014500                       # number of ReadSharedReq MSHR miss cycles
system.l2.ReadSharedReq_mshr_miss_latency::total   4555014500                       # number of ReadSharedReq MSHR miss cycles
system.l2.ReadSharedReq_mshr_miss_rate::.cpu.data     0.276964                       # mshr miss rate for ReadSharedReq accesses
system.l2.ReadSharedReq_mshr_miss_rate::total     0.276964                       # mshr miss rate for ReadSharedReq accesses
system.l2.ReadSharedReq_avg_mshr_miss_latency::.cpu.data 70014.671524                       # average ReadSharedReq mshr miss latency
system.l2.ReadSharedReq_avg_mshr_miss_latency::total 70014.671524                       # average ReadSharedReq mshr miss latency
system.l2.power_state.pwrStateResidencyTicks::UNDEFINED  81709372000                       # Cumulative time (in ticks) in various power states
system.l2.tags.tagsinuse                 31870.835727                       # Cycle average of tags in use
system.l2.tags.total_refs                      992044                       # Total number of references to valid blocks.
system.l2.tags.sampled_refs                    201950                       # Sample count of references to valid blocks.
system.l2.tags.avg_refs                      4.912325                       # Average number of references to valid blocks.
system.l2.tags.warmup_cycle                     77000                       # Cycle when the warmup percentage was hit.
system.l2.tags.occ_blocks::.writebacks      49.409683                       # Average occupied blocks per requestor
system.l2.tags.occ_blocks::.cpu.inst        87.071203                       # Average occupied blocks per requestor
system.l2.tags.occ_blocks::.cpu.data     31734.354841                       # Average occupied blocks per requestor
system.l2.tags.occ_percent::.writebacks      0.001508                       # Average percentage of cache occupancy
system.l2.tags.occ_percent::.cpu.inst        0.002657                       # Average percentage of cache occupancy
system.l2.tags.occ_percent::.cpu.data        0.968456                       # Average percentage of cache occupancy
system.l2.tags.occ_percent::total            0.972621                       # Average percentage of cache occupancy
system.l2.tags.occ_task_id_blocks::1024         32768                       # Occupied blocks per task id
system.l2.tags.age_task_id_blocks_1024::0            1                       # Occupied blocks per task id
system.l2.tags.age_task_id_blocks_1024::1          141                       # Occupied blocks per task id
system.l2.tags.age_task_id_blocks_1024::2         1291                       # Occupied blocks per task id
system.l2.tags.age_task_id_blocks_1024::3        16361                       # Occupied blocks per task id
system.l2.tags.age_task_id_blocks_1024::4        14974                       # Occupied blocks per task id
system.l2.tags.occ_task_id_percent::1024            1                       # Percentage of cache occupancy per task id
system.l2.tags.tag_accesses                   8138358                       # Number of tag accesses
system.l2.tags.data_accesses                  8138358                       # Number of data accesses
system.l2.tags.power_state.pwrStateResidencyTicks::UNDEFINED  81709372000                       # Cumulative time (in ticks) in various power states
system.mem_ctrls.avgPriority_.writebacks::samples    111027.00                       # Average QoS priority value for accepted requests
system.mem_ctrls.avgPriority_.cpu.inst::samples       671.00                       # Average QoS priority value for accepted requests
system.mem_ctrls.avgPriority_.cpu.data::samples    201097.00                       # Average QoS priority value for accepted requests
system.mem_ctrls.priorityMinLatency      0.000000018750                       # per QoS priority minimum request to response latency (s)
system.mem_ctrls.priorityMaxLatency      0.003419902500                       # per QoS priority maximum request to response latency (s)
system.mem_ctrls.numReadWriteTurnArounds         6648                       # Number of turnarounds from READ to WRITE
system.mem_ctrls.numWriteReadTurnArounds         6648                       # Number of turnarounds from WRITE to READ
system.mem_ctrls.numStayReadState              525105                       # Number of times bus staying in READ state
system.mem_ctrls.numStayWriteState             104502                       # Number of times bus staying in WRITE state
system.mem_ctrls.readReqs                      201810                       # Number of read requests accepted
system.mem_ctrls.writeReqs                     111027                       # Number of write requests accepted
system.mem_ctrls.readBursts                    201810                       # Number of controller read bursts, including those serviced by the write queue
system.mem_ctrls.writeBursts                   111027                       # Number of controller write bursts, including those merged in the write queue
system.mem_ctrls.servicedByWrQ                     42                       # Number of controller read bursts serviced by the write queue
system.mem_ctrls.mergedWrBursts                     0                       # Number of controller write bursts merged with an existing one
system.mem_ctrls.neitherReadNorWriteReqs            0                       # Number of requests that are neither read nor write
system.mem_ctrls.avgRdQLen                       1.09                       # Average read queue length when enqueuing
system.mem_ctrls.avgWrQLen                      24.77                       # Average write queue length when enqueuing
system.mem_ctrls.numRdRetry                         0                       # Number of times read queue was full causing retry
system.mem_ctrls.numWrRetry                         0                       # Number of times write queue was full causing retry
system.mem_ctrls.readPktSize::0                     0                       # Read request sizes (log2)
system.mem_ctrls.readPktSize::1                     0                       # Read request sizes (log2)
system.mem_ctrls.readPktSize::2                     0                       # Read request sizes (log2)
system.mem_ctrls.readPktSize::3                     0                       # Read request sizes (log2)
system.mem_ctrls.readPktSize::4                     0                       # Read request sizes (log2)
system.mem_ctrls.readPktSize::5                     0                       # Read request sizes (log2)
system.mem_ctrls.readPktSize::6                201810                       # Read request sizes (log2)
system.mem_ctrls.writePktSize::0                    0                       # Write request sizes (log2)
system.mem_ctrls.writePktSize::1                    0                       # Write request sizes (log2)
system.mem_ctrls.writePktSize::2                    0                       # Write request sizes (log2)
system.mem_ctrls.writePktSize::3                    0                       # Write request sizes (log2)
system.mem_ctrls.writePktSize::4                    0                       # Write request sizes (log2)
system.mem_ctrls.writePktSize::5                    0                       # Write request sizes (log2)
system.mem_ctrls.writePktSize::6               111027                       # Write request sizes (log2)
system.mem_ctrls.rdQLenPdf::0                  139469                       # What read queue length does an incoming req see
system.mem_ctrls.rdQLenPdf::1                   59542                       # What read queue length does an incoming req see
system.mem_ctrls.rdQLenPdf::2                    2416                       # What read queue length does an incoming req see
system.mem_ctrls.rdQLenPdf::3                     340                       # What read queue length does an incoming req see
system.mem_ctrls.rdQLenPdf::4                       1                       # What read queue length does an incoming req see
system.mem_ctrls.rdQLenPdf::5                       0                       # What read queue length does an incoming req see
system.mem_ctrls.rdQLenPdf::6                       0                       # What read queue length does an incoming req see
[...]
system.mem_ctrls.dram.bw_write::.writebacks     86963439                       # Write bandwidth from this memory (bytes/s)
system.mem_ctrls.dram.bw_write::total        86963439                       # Write bandwidth from this memory (bytes/s)
system.mem_ctrls.dram.bw_total::.writebacks     86963439                       # Total bandwidth to/from this memory (bytes/s)
system.mem_ctrls.dram.bw_total::.cpu.inst       525570                       # Total bandwidth to/from this memory (bytes/s)
system.mem_ctrls.dram.bw_total::.cpu.data    157544914                       # Total bandwidth to/from this memory (bytes/s)
system.mem_ctrls.dram.bw_total::total       245033923                       # Total bandwidth to/from this memory (bytes/s)
system.mem_ctrls.dram.readBursts               201768                       # Number of DRAM read bursts
system.mem_ctrls.dram.writeBursts              110996                       # Number of DRAM write bursts
system.mem_ctrls.dram.perBankRdBursts::0        12905                       # Per bank write bursts
system.mem_ctrls.dram.perBankRdBursts::1        12868                       # Per bank write bursts
system.mem_ctrls.dram.perBankRdBursts::2        12768                       # Per bank write bursts
system.mem_ctrls.dram.perBankRdBursts::3        12532                       # Per bank write bursts
system.mem_ctrls.dram.perBankRdBursts::4        12594                       # Per bank write bursts
system.mem_ctrls.dram.perBankRdBursts::5        12356                       # Per bank write bursts
system.mem_ctrls.dram.perBankRdBursts::6        12587                       # Per bank write bursts
system.mem_ctrls.dram.perBankRdBursts::7        12369                       # Per bank write bursts
system.mem_ctrls.dram.perBankRdBursts::8        12462                       # Per bank write bursts
system.mem_ctrls.dram.perBankRdBursts::9        12125                       # Per bank write bursts
system.mem_ctrls.dram.perBankRdBursts::10        12588                       # Per bank write bursts
system.mem_ctrls.dram.perBankRdBursts::11        12638                       # Per bank write bursts
system.mem_ctrls.dram.perBankRdBursts::12        12776                       # Per bank write bursts
system.mem_ctrls.dram.perBankRdBursts::13        12737                       # Per bank write bursts
system.mem_ctrls.dram.perBankRdBursts::14        12791                       # Per bank write bursts
system.mem_ctrls.dram.perBankRdBursts::15        12672                       # Per bank write bursts
system.mem_ctrls.dram.perBankWrBursts::0         7052                       # Per bank write bursts
system.mem_ctrls.dram.perBankWrBursts::1         7146                       # Per bank write bursts
system.mem_ctrls.dram.perBankWrBursts::2         7053                       # Per bank write bursts
system.mem_ctrls.dram.perBankWrBursts::3         6942                       # Per bank write bursts
system.mem_ctrls.dram.perBankWrBursts::4         7009                       # Per bank write bursts
system.mem_ctrls.dram.perBankWrBursts::5         6936                       # Per bank write bursts
system.mem_ctrls.dram.perBankWrBursts::6         7116                       # Per bank write bursts
system.mem_ctrls.dram.perBankWrBursts::7         6841                       # Per bank write bursts
system.mem_ctrls.dram.perBankWrBursts::8         6785                       # Per bank write bursts
system.mem_ctrls.dram.perBankWrBursts::9         6486                       # Per bank write bursts
system.mem_ctrls.dram.perBankWrBursts::10         6879                       # Per bank write bursts
system.mem_ctrls.dram.perBankWrBursts::11         6909                       # Per bank write bursts
system.mem_ctrls.dram.perBankWrBursts::12         6994                       # Per bank write bursts
system.mem_ctrls.dram.perBankWrBursts::13         6930                       # Per bank write bursts
system.mem_ctrls.dram.perBankWrBursts::14         6996                       # Per bank write bursts
system.mem_ctrls.dram.perBankWrBursts::15         6922                       # Per bank write bursts
system.mem_ctrls.dram.totQLat              2944585750                       # Total ticks spent queuing
system.mem_ctrls.dram.totBusLat            1008840000                       # Total ticks spent in databus transfers
system.mem_ctrls.dram.totMemAccLat         6727735750                       # Total ticks spent from burst creation until serviced by the DRAM
system.mem_ctrls.dram.avgQLat                14593.92                       # Average queueing delay per DRAM burst
system.mem_ctrls.dram.avgBusLat               5000.00                       # Average bus latency per DRAM burst
system.mem_ctrls.dram.avgMemAccLat           33343.92                       # Average memory access latency per DRAM burst
system.mem_ctrls.dram.readRowHits              139103                       # Number of row buffer hits during reads
system.mem_ctrls.dram.writeRowHits              69987                       # Number of row buffer hits during writes
system.mem_ctrls.dram.readRowHitRate            68.94                       # Row buffer hit rate for reads
system.mem_ctrls.dram.writeRowHitRate           63.05                       # Row buffer hit rate for writes
system.mem_ctrls.dram.bytesPerActivate::samples       103674                       # Bytes accessed per row activation
system.mem_ctrls.dram.bytesPerActivate::mean   193.075371                       # Bytes accessed per row activation
system.mem_ctrls.dram.bytesPerActivate::gmean   112.240312                       # Bytes accessed per row activation
system.mem_ctrls.dram.bytesPerActivate::stdev   258.535970                       # Bytes accessed per row activation
system.mem_ctrls.dram.bytesPerActivate::0-127        68063     65.65%     65.65% # Bytes accessed per row activation
system.mem_ctrls.dram.bytesPerActivate::128-255        14555     14.04%     79.69% # Bytes accessed per row activation
system.mem_ctrls.dram.bytesPerActivate::256-383         2511      2.42%     82.11% # Bytes accessed per row activation
system.mem_ctrls.dram.bytesPerActivate::384-511         1336      1.29%     83.40% # Bytes accessed per row activation
system.mem_ctrls.dram.bytesPerActivate::512-639         8858      8.54%     91.94% # Bytes accessed per row activation
system.mem_ctrls.dram.bytesPerActivate::640-767         1638      1.58%     93.52% # Bytes accessed per row activation
system.mem_ctrls.dram.bytesPerActivate::768-895          489      0.47%     94.00% # Bytes accessed per row activation
system.mem_ctrls.dram.bytesPerActivate::896-1023          536      0.52%     94.51% # Bytes accessed per row activation
system.mem_ctrls.dram.bytesPerActivate::1024-1151         5688      5.49%    100.00% # Bytes accessed per row activation
system.mem_ctrls.dram.bytesPerActivate::total       103674                       # Bytes accessed per row activation
system.mem_ctrls.dram.bytesRead              12913152                       # Total number of bytes read from DRAM
system.mem_ctrls.dram.bytesWritten            7103744                       # Total number of bytes written to DRAM
system.mem_ctrls.dram.avgRdBW              158.037587                       # Average DRAM read bandwidth in MiBytes/s
system.mem_ctrls.dram.avgWrBW               86.939158                       # Average DRAM write bandwidth in MiBytes/s
system.mem_ctrls.dram.peakBW                 12800.00                       # Theoretical peak bandwidth in MiByte/s
system.mem_ctrls.dram.busUtil                    1.91                       # Data bus utilization in percentage
system.mem_ctrls.dram.busUtilRead                1.23                       # Data bus utilization in percentage for reads
system.mem_ctrls.dram.busUtilWrite               0.68                       # Data bus utilization in percentage for writes
system.mem_ctrls.dram.pageHitRate               66.85                       # Row buffer hit rate, read and write combined
system.mem_ctrls.dram.power_state.pwrStateResidencyTicks::UNDEFINED  81709372000                       # Cumulative time (in ticks) in various power states
system.mem_ctrls.dram.rank0.actEnergy       372815100                       # Energy for activate commands per rank (pJ)
system.mem_ctrls.dram.rank0.preEnergy       198155925                       # Energy for precharge commands per rank (pJ)
system.mem_ctrls.dram.rank0.readEnergy      720990060                       # Energy for read commands per rank (pJ)
system.mem_ctrls.dram.rank0.writeEnergy     292815900                       # Energy for write commands per rank (pJ)
system.mem_ctrls.dram.rank0.refreshEnergy 6450032160.000001                       # Energy for refresh commands per rank (pJ)
system.mem_ctrls.dram.rank0.actBackEnergy  21257000880                       # Energy for active background per rank (pJ)
system.mem_ctrls.dram.rank0.preBackEnergy  13475766720                       # Energy for precharge background per rank (pJ)
system.mem_ctrls.dram.rank0.actPowerDownEnergy            0                       # Energy for active power-down per rank (pJ)
system.mem_ctrls.dram.rank0.prePowerDownEnergy            0                       # Energy for precharge power-down per rank (pJ)
system.mem_ctrls.dram.rank0.selfRefreshEnergy            0                       # Energy for self refresh per rank (pJ)
system.mem_ctrls.dram.rank0.totalEnergy   42767576745                       # Total energy per rank (pJ)
system.mem_ctrls.dram.rank0.averagePower   523.410910                       # Core power per rank (mW)
system.mem_ctrls.dram.rank0.totalIdleTime            0                       # Total Idle time Per DRAM Rank
system.mem_ctrls.dram.rank0.pwrStateTime::IDLE  34817283500                       # Time in different power states
system.mem_ctrls.dram.rank0.pwrStateTime::REF   2728440000                       # Time in different power states
system.mem_ctrls.dram.rank0.pwrStateTime::SREF            0                       # Time in different power states
system.mem_ctrls.dram.rank0.pwrStateTime::PRE_PDN            0                       # Time in different power states
system.mem_ctrls.dram.rank0.pwrStateTime::ACT  44163648500                       # Time in different power states
system.mem_ctrls.dram.rank0.pwrStateTime::ACT_PDN            0                       # Time in different power states
system.mem_ctrls.dram.rank1.actEnergy       367417260                       # Energy for activate commands per rank (pJ)
system.mem_ctrls.dram.rank1.preEnergy       195286905                       # Energy for precharge commands per rank (pJ)
system.mem_ctrls.dram.rank1.readEnergy      719633460                       # Energy for read commands per rank (pJ)
system.mem_ctrls.dram.rank1.writeEnergy     286583220                       # Energy for write commands per rank (pJ)
system.mem_ctrls.dram.rank1.refreshEnergy 6450032160.000001                       # Energy for refresh commands per rank (pJ)
system.mem_ctrls.dram.rank1.actBackEnergy  20884825650                       # Energy for active background per rank (pJ)
system.mem_ctrls.dram.rank1.preBackEnergy  13789177440                       # Energy for precharge background per rank (pJ)
system.mem_ctrls.dram.rank1.actPowerDownEnergy            0                       # Energy for active power-down per rank (pJ)
system.mem_ctrls.dram.rank1.prePowerDownEnergy            0                       # Energy for precharge power-down per rank (pJ)
system.mem_ctrls.dram.rank1.selfRefreshEnergy            0                       # Energy for self refresh per rank (pJ)
system.mem_ctrls.dram.rank1.totalEnergy   42692956095                       # Total energy per rank (pJ)
system.mem_ctrls.dram.rank1.averagePower   522.497665                       # Core power per rank (mW)
system.mem_ctrls.dram.rank1.totalIdleTime            0                       # Total Idle time Per DRAM Rank
system.mem_ctrls.dram.rank1.pwrStateTime::IDLE  35634023000                       # Time in different power states
system.mem_ctrls.dram.rank1.pwrStateTime::REF   2728440000                       # Time in different power states
system.mem_ctrls.dram.rank1.pwrStateTime::SREF            0                       # Time in different power states
system.mem_ctrls.dram.rank1.pwrStateTime::PRE_PDN            0                       # Time in different power states
system.mem_ctrls.dram.rank1.pwrStateTime::ACT  43346909000                       # Time in different power states
system.mem_ctrls.dram.rank1.pwrStateTime::ACT_PDN            0                       # Time in different power states
system.mem_ctrls.power_state.pwrStateResidencyTicks::UNDEFINED  81709372000                       # Cumulative time (in ticks) in various power states
system.membus.trans_dist::ReadResp              65729                       # Transaction distribution
system.membus.trans_dist::WritebackDirty       111027                       # Transaction distribution
system.membus.trans_dist::CleanEvict            57674                       # Transaction distribution
system.membus.trans_dist::ReadExReq            136081                       # Transaction distribution
system.membus.trans_dist::ReadExResp           136081                       # Transaction distribution
system.membus.trans_dist::ReadSharedReq         65729                       # Transaction distribution
system.membus.pkt_count_system.l2.mem_side_port::system.mem_ctrls.port       572321                       # Packet count per connected requestor and responder (bytes)
system.membus.pkt_count::total                 572321                       # Packet count per connected requestor and responder (bytes)
system.membus.pkt_size_system.l2.mem_side_port::system.mem_ctrls.port     20021568                       # Cumulative packet size per connected requestor and responder (bytes)
system.membus.pkt_size::total                20021568                       # Cumulative packet size per connected requestor and responder (bytes)
system.membus.snoops                                0                       # Total snoops (count)
system.membus.snoopTraffic                          0                       # Total snoop traffic (bytes)
system.membus.snoop_fanout::samples            201810                       # Request fanout histogram
system.membus.snoop_fanout::mean                    0                       # Request fanout histogram
system.membus.snoop_fanout::stdev                   0                       # Request fanout histogram
system.membus.snoop_fanout::underflows              0      0.00%      0.00% # Request fanout histogram
system.membus.snoop_fanout::0                  201810    100.00%    100.00% # Request fanout histogram
system.membus.snoop_fanout::1                       0      0.00%    100.00% # Request fanout histogram
system.membus.snoop_fanout::overflows               0      0.00%    100.00% # Request fanout histogram
system.membus.snoop_fanout::min_value               0                       # Request fanout histogram
system.membus.snoop_fanout::max_value               0                       # Request fanout histogram
system.membus.snoop_fanout::total              201810                       # Request fanout histogram
system.membus.power_state.pwrStateResidencyTicks::UNDEFINED  81709372000                       # Cumulative time (in ticks) in various power states
system.membus.reqLayer0.occupancy           852434500                       # Layer occupancy (ticks)
system.membus.reqLayer0.utilization               1.0                       # Layer utilization (%)
system.membus.respLayer1.occupancy         1086912750                       # Layer occupancy (ticks)
system.membus.respLayer1.utilization              1.3                       # Layer utilization (%)
system.tol2bus.trans_dist::ReadResp            235670                       # Transaction distribution
system.tol2bus.trans_dist::WritebackDirty       531741                       # Transaction distribution
system.tol2bus.trans_dist::WritebackClean          333                       # Transaction distribution
system.tol2bus.trans_dist::CleanEvict          132439                       # Transaction distribution
system.tol2bus.trans_dist::ReadExReq           261125                       # Transaction distribution
system.tol2bus.trans_dist::ReadExResp          261125                       # Transaction distribution
system.tol2bus.trans_dist::ReadCleanReq           773                       # Transaction distribution
system.tol2bus.trans_dist::ReadSharedReq       234897                       # Transaction distribution
system.tol2bus.pkt_count_system.cpu.icache.mem_side_port::system.l2.cpu_side_port         1879                       # Packet count per connected requestor and responder (bytes)
system.tol2bus.pkt_count_system.cpu.dcache.mem_side_port::system.l2.cpu_side_port      1487042                       # Packet count per connected requestor and responder (bytes)
system.tol2bus.pkt_count::total               1488921                       # Packet count per connected requestor and responder (bytes)
system.tol2bus.pkt_size_system.cpu.icache.mem_side_port::system.l2.cpu_side_port        70784                       # Cumulative packet size per connected requestor and responder (bytes)
system.tol2bus.pkt_size_system.cpu.dcache.mem_side_port::system.l2.cpu_side_port     58671104                       # Cumulative packet size per connected requestor and responder (bytes)
system.tol2bus.pkt_size::total               58741888                       # Cumulative packet size per connected requestor and responder (bytes)
system.tol2bus.snoops                          169182                       # Total snoops (count)
system.tol2bus.snoopTraffic                   7105728                       # Total snoop traffic (bytes)
system.tol2bus.snoop_fanout::samples           665977                       # Request fanout histogram
system.tol2bus.snoop_fanout::mean            0.000839                       # Request fanout histogram
system.tol2bus.snoop_fanout::stdev           0.028960                       # Request fanout histogram
system.tol2bus.snoop_fanout::underflows             0      0.00%      0.00% # Request fanout histogram
system.tol2bus.snoop_fanout::0                 665418     99.92%     99.92% # Request fanout histogram
system.tol2bus.snoop_fanout::1                    559      0.08%    100.00% # Request fanout histogram
system.tol2bus.snoop_fanout::2                      0      0.00%    100.00% # Request fanout histogram
system.tol2bus.snoop_fanout::overflows              0      0.00%    100.00% # Request fanout histogram
system.tol2bus.snoop_fanout::min_value              0                       # Request fanout histogram
system.tol2bus.snoop_fanout::max_value              1                       # Request fanout histogram
system.tol2bus.snoop_fanout::total             665977                       # Request fanout histogram
system.tol2bus.power_state.pwrStateResidencyTicks::UNDEFINED  81709372000                       # Cumulative time (in ticks) in various power states
system.tol2bus.reqLayer0.occupancy          917110000                       # Layer occupancy (ticks)
system.tol2bus.reqLayer0.utilization              1.1                       # Layer utilization (%)
system.tol2bus.respLayer0.occupancy           1159500                       # Layer occupancy (ticks)
system.tol2bus.respLayer0.utilization             0.0                       # Layer utilization (%)
system.tol2bus.respLayer1.occupancy         744035994                       # Layer occupancy (ticks)
system.tol2bus.respLayer1.utilization             0.9                       # Layer utilization (%)
system.voltage_domain.voltage                       1                       # Voltage in Volts

---------- End Simulation Statistics   ----------
