
---------- Begin Simulation Statistics ----------
final_tick                                   37707250                       # Number of ticks from beginning of simulation (restored from checkpoints and never reset)
host_inst_rate                                  80033                       # Simulator instruction rate (inst/s)
host_mem_usage                                 715252                       # Number of bytes of host memory used
host_op_rate                                    91567                       # Simulator op (including micro ops) rate (op/s)
host_seconds                                     0.13                       # Real time elapsed on the host
host_tick_rate                              299616316                       # Simulator tick rate (ticks/s)
sim_freq                                 1000000000000                       # Frequency of simulated ticks
sim_insts                                       10062                       # Number of instructions simulated
sim_ops                                         11522                       # Number of ops (including micro ops) simulated
sim_seconds                                  0.000038                       # Number of seconds simulated
sim_ticks                                    37707250                       # Number of ticks simulated
system.cpu.committedInsts                       10062                       # Number of instructions committed
system.cpu.committedOps                         11522                       # Number of ops (including micro ops) committed
system.cpu.cpi                              14.989962                       # CPI: cycles per instruction
system.cpu.discardedOps                          2031                       # Number of ops (including micro ops) which were discarded before commit
system.cpu.idleCycles                          130964                       # Total number of cycles that the object has spent stopped
system.cpu.ipc                               0.066711                       # IPC: instructions per cycle
system.cpu.numCycles                           150829                       # number of cpu cycles simulated
system.cpu.numFetchSuspends                         0                       # Number of times Execute suspended instruction fetching
system.cpu.numWorkItemsCompleted                    0                       # number of work items this cpu completed
system.cpu.numWorkItemsStarted                      0                       # number of work items this cpu started
system.cpu.op_class_0::No_OpClass                   0      0.00%      0.00% # Class of committed instruction
system.cpu.op_class_0::IntAlu                    7977     69.23%     69.23% # Class of committed instruction
system.cpu.op_class_0::IntMult                     62      0.54%     69.77% # Class of committed instruction
system.cpu.op_class_0::IntDiv                       0      0.00%     69.77% # Class of committed instruction
system.cpu.op_class_0::FloatAdd                     0      0.00%     69.77% # Class of committed instruction
system.cpu.op_class_0::FloatCmp                     0      0.00%     69.77% # Class of committed instruction
system.cpu.op_class_0::FloatCvt                     0      0.00%     69.77% # Class of committed instruction
system.cpu.op_class_0::FloatMult                    0      0.00%     69.77% # Class of committed instruction
system.cpu.op_class_0::FloatMultAcc                 0      0.00%     69.77% # Class of committed instruction
system.cpu.op_class_0::FloatDiv                     0      0.00%     69.77% # Class of committed instruction
system.cpu.op_class_0::FloatMisc                    0      0.00%     69.77% # Class of committed instruction
system.cpu.op_class_0::FloatSqrt                    0      0.00%     69.77% # Class of committed instruction
system.cpu.op_class_0::SimdAdd                      0      0.00%     69.77% # Class of committed instruction
system.cpu.op_class_0::SimdAddAcc                   0      0.00%     69.77% # Class of committed instruction
system.cpu.op_class_0::SimdAlu                      0      0.00%     69.77% # Class of committed instruction
system.cpu.op_class_0::SimdCmp                      0      0.00%     69.77% # Class of committed instruction
system.cpu.op_class_0::SimdCvt                      0      0.00%     69.77% # Class of committed instruction
system.cpu.op_class_0::SimdMisc                     0      0.00%     69.77% # Class of committed instruction
system.cpu.op_class_0::SimdMult                     0      0.00%     69.77% # Class of committed instruction
system.cpu.op_class_0::SimdMultAcc                  0      0.00%     69.77% # Class of committed instruction
system.cpu.op_class_0::SimdShift                    0      0.00%     69.77% # Class of committed instruction
system.cpu.op_class_0::SimdShiftAcc                 0      0.00%     69.77% # Class of committed instruction
system.cpu.op_class_0::SimdDiv                      0      0.00%     69.77% # Class of committed instruction
system.cpu.op_class_0::SimdSqrt                     0      0.00%     69.77% # Class of committed instruction
system.cpu.op_class_0::SimdFloatAdd                 0      0.00%     69.77% # Class of committed instruction
system.cpu.op_class_0::SimdFloatAlu                 0      0.00%     69.77% # Class of committed instruction
system.cpu.op_class_0::SimdFloatCmp                 0      0.00%     69.77% # Class of committed instruction
system.cpu.op_class_0::SimdFloatCvt                 0      0.00%     69.77% # Class of committed instruction
system.cpu.op_class_0::SimdFloatDiv                 0      0.00%     69.77% # Class of committed instruction
system.cpu.op_class_0::SimdFloatMisc                0      0.00%     69.77% # Class of committed instruction
system.cpu.op_class_0::SimdFloatMult                0      0.00%     69.77% # Class of committed instruction
system.cpu.op_class_0::SimdFloatMultAcc             0      0.00%     69.77% # Class of committed instruction
system.cpu.op_class_0::SimdFloatSqrt                0      0.00%     69.77% # Class of committed instruction
system.cpu.op_class_0::SimdReduceAdd                0      0.00%     69.77% # Class of committed instruction
system.cpu.op_class_0::SimdReduceAlu                0      0.00%     69.77% # Class of committed instruction
system.cpu.op_class_0::SimdReduceCmp                0      0.00%     69.77% # Class of committed instruction
system.cpu.op_class_0::SimdFloatReduceAdd            0      0.00%     69.77% # Class of committed instruction
system.cpu.op_class_0::SimdFloatReduceCmp            0      0.00%     69.77% # Class of committed instruction
system.cpu.op_class_0::SimdAes                      0      0.00%     69.77% # Class of committed instruction
system.cpu.op_class_0::SimdAesMix                   0      0.00%     69.77% # Class of committed instruction
system.cpu.op_class_0::SimdSha1Hash                 0      0.00%     69.77% # Class of committed instruction
system.cpu.op_class_0::SimdSha1Hash2                0      0.00%     69.77% # Class of committed instruction
system.cpu.op_class_0::SimdSha256Hash               0      0.00%     69.77% # Class of committed instruction
system.cpu.op_class_0::SimdSha256Hash2              0      0.00%     69.77% # Class of committed instruction
system.cpu.op_class_0::SimdShaSigma2                0      0.00%     69.77% # Class of committed instruction
system.cpu.op_class_0::SimdShaSigma3                0      0.00%     69.77% # Class of committed instruction
system.cpu.op_class_0::SimdPredAlu                  0      0.00%     69.77% # Class of committed instruction
system.cpu.op_class_0::MemRead                   1780     15.45%     85.22% # Class of committed instruction
system.cpu.op_class_0::MemWrite                  1703     14.78%    100.00% # Class of committed instruction
system.cpu.op_class_0::FloatMemRead                 0      0.00%    100.00% # Class of committed instruction
system.cpu.op_class_0::FloatMemWrite                0      0.00%    100.00% # Class of committed instruction
system.cpu.op_class_0::IprAccess                    0      0.00%    100.00% # Class of committed instruction
system.cpu.op_class_0::InstPrefetch                 0      0.00%    100.00% # Class of committed instruction
system.cpu.op_class_0::total                    11522                       # Class of committed instruction
system.cpu.tickCycles                           19865                       # Number of cycles that the object actually ticked
system.cpu.workload.numSyscalls                    13                       # Number of system calls
system.membus.snoop_filter.hit_multi_requests            0                       # Number of requests hitting in the snoop filter with multiple (>1) holders of the requested data.
system.membus.snoop_filter.hit_multi_snoops            0                       # Number of snoops hitting in the snoop filter with multiple (>1) holders of the requested data.
system.membus.snoop_filter.hit_single_requests            0                       # Number of requests hitting in the snoop filter with a single holder of the requested data.
system.membus.snoop_filter.hit_single_snoops            0                       # Number of snoops hitting in the snoop filter with a single holder of the requested data.
system.membus.snoop_filter.tot_requests           607                       # Total number of requests made to the snoop filter.
system.membus.snoop_filter.tot_snoops               0                       # Total number of snoops made to the snoop filter.
system.tol2bus.snoop_filter.hit_multi_requests            6                       # Number of requests hitting in the snoop filter with multiple (>1) holders of the requested data.
system.tol2bus.snoop_filter.hit_multi_snoops            0                       # Number of snoops hitting in the snoop filter with multiple (>1) holders of the requested data.
system.tol2bus.snoop_filter.hit_single_requests          119                       # Number of requests hitting in the snoop filter with a single holder of the requested data.
system.tol2bus.snoop_filter.hit_single_snoops            0                       # Number of snoops hitting in the snoop filter with a single holder of the requested data.
system.tol2bus.snoop_filter.tot_requests          749                       # Total number of requests made to the snoop filter.
system.tol2bus.snoop_filter.tot_snoops              0                       # Total number of snoops made to the snoop filter.
system.clk_domain.clock                          1000                       # Clock period in ticks
system.cpu.branchPred.lookups                    3270                       # Number of BP lookups
system.cpu.branchPred.condPredicted              2110                       # Number of conditional branches predicted
system.cpu.branchPred.condIncorrect               609                       # Number of conditional branches incorrect
system.cpu.branchPred.BTBLookups                 1691                       # Number of BTB lookups
system.cpu.branchPred.BTBHits                     697                       # Number of BTB hits
system.cpu.branchPred.BTBHitPct             41.218214                       # BTB Hit Percentage
system.cpu.branchPred.RASUsed                     280                       # Number of times the RAS was used to get a target.
system.cpu.branchPred.RASIncorrect                  2                       # Number of incorrect RAS predictions.
system.cpu.branchPred.indirectLookups             148                       # Number of indirect predictor lookups.
system.cpu.branchPred.indirectHits                 13                       # Number of indirect target hits.
system.cpu.branchPred.indirectMisses              135                       # Number of indirect misses.
system.cpu.branchPred.indirectMispredicted           69                       # Number of mispredicted indirect branches.
system.cpu.dcache.demand_hits::.cpu.data         3362                       # number of demand (read+write) hits
system.cpu.dcache.demand_hits::total             3362                       # number of demand (read+write) hits
system.cpu.dcache.overall_hits::.cpu.data         3391                       # number of overall hits
system.cpu.dcache.overall_hits::total            3391                       # number of overall hits
system.cpu.dcache.demand_misses::.cpu.data          234                       # number of demand (read+write) misses
system.cpu.dcache.demand_misses::total            234                       # number of demand (read+write) misses
system.cpu.dcache.overall_misses::.cpu.data          254                       # number of overall misses
system.cpu.dcache.overall_misses::total           254                       # number of overall misses
system.cpu.dcache.demand_miss_latency::.cpu.data     15949250                       # number of demand (read+write) miss cycles
system.cpu.dcache.demand_miss_latency::total     15949250                       # number of demand (read+write) miss cycles
system.cpu.dcache.overall_miss_latency::.cpu.data     15949250                       # number of overall miss cycles
system.cpu.dcache.overall_miss_latency::total     15949250                       # number of overall miss cycles
system.cpu.dcache.demand_accesses::.cpu.data         3596                       # number of demand (read+write) accesses
system.cpu.dcache.demand_accesses::total         3596                       # number of demand (read+write) accesses
system.cpu.dcache.overall_accesses::.cpu.data         3645                       # number of overall (read+write) accesses
system.cpu.dcache.overall_accesses::total         3645                       # number of overall (read+write) accesses
system.cpu.dcache.demand_miss_rate::.cpu.data     0.065072                       # miss rate for demand accesses
system.cpu.dcache.demand_miss_rate::total     0.065072                       # miss rate for demand accesses
system.cpu.dcache.overall_miss_rate::.cpu.data     0.069684                       # miss rate for overall accesses
system.cpu.dcache.overall_miss_rate::total     0.069684                       # miss rate for overall accesses
system.cpu.dcache.demand_avg_miss_latency::.cpu.data 68159.188034                       # average overall miss latency
system.cpu.dcache.demand_avg_miss_latency::total 68159.188034                       # average overall miss latency
system.cpu.dcache.overall_avg_miss_latency::.cpu.data 62792.322835                       # average overall miss latency
system.cpu.dcache.overall_avg_miss_latency::total 62792.322835                       # average overall miss latency
system.cpu.dcache.blocked_cycles::no_mshrs            0                       # number of cycles access was blocked
system.cpu.dcache.blocked_cycles::no_targets            0                       # number of cycles access was blocked
system.cpu.dcache.blocked::no_mshrs                 0                       # number of cycles access was blocked
system.cpu.dcache.blocked::no_targets               0                       # number of cycles access was blocked
system.cpu.dcache.avg_blocked_cycles::no_mshrs          nan                       # average number of cycles each access was blocked
system.cpu.dcache.avg_blocked_cycles::no_targets          nan                       # average number of cycles each access was blocked
system.cpu.dcache.demand_mshr_hits::.cpu.data           56                       # number of demand (read+write) MSHR hits
system.cpu.dcache.demand_mshr_hits::total           56                       # number of demand (read+write) MSHR hits
system.cpu.dcache.overall_mshr_hits::.cpu.data           56                       # number of overall MSHR hits
system.cpu.dcache.overall_mshr_hits::total           56                       # number of overall MSHR hits
system.cpu.dcache.demand_mshr_misses::.cpu.data          178                       # number of demand (read+write) MSHR misses
system.cpu.dcache.demand_mshr_misses::total          178                       # number of demand (read+write) MSHR misses
system.cpu.dcache.overall_mshr_misses::.cpu.data          193                       # number of overall MSHR misses
system.cpu.dcache.overall_mshr_misses::total          193                       # number of overall MSHR misses
system.cpu.dcache.demand_mshr_miss_latency::.cpu.data     12117000                       # number of demand (read+write) MSHR miss cycles
system.cpu.dcache.demand_mshr_miss_latency::total     12117000                       # number of demand (read+write) MSHR miss cycles
system.cpu.dcache.overall_mshr_miss_latency::.cpu.data     13178250                       # number of overall MSHR miss cycles
system.cpu.dcache.overall_mshr_miss_latency::total     13178250                       # number of overall MSHR miss cycles
system.cpu.dcache.demand_mshr_miss_rate::.cpu.data     0.049499                       # mshr miss rate for demand accesses
system.cpu.dcache.demand_mshr_miss_rate::total     0.049499                       # mshr miss rate for demand accesses
system.cpu.dcache.overall_mshr_miss_rate::.cpu.data     0.052949                       # mshr miss rate for overall accesses
system.cpu.dcache.overall_mshr_miss_rate::total     0.052949                       # mshr miss rate for overall accesses
system.cpu.dcache.demand_avg_mshr_miss_latency::.cpu.data 68073.033708                       # average overall mshr miss latency
system.cpu.dcache.demand_avg_mshr_miss_latency::total 68073.033708                       # average overall mshr miss latency
system.cpu.dcache.overall_avg_mshr_miss_latency::.cpu.data 68281.088083                       # average overall mshr miss latency
system.cpu.dcache.overall_avg_mshr_miss_latency::total 68281.088083                       # average overall mshr miss latency
system.cpu.dcache.replacements                      2                       # number of replacements
system.cpu.dcache.ReadReq_hits::.cpu.data         1838                       # number of ReadReq hits
system.cpu.dcache.ReadReq_hits::total            1838                       # number of ReadReq hits
system.cpu.dcache.ReadReq_misses::.cpu.data          109                       # number of ReadReq misses
system.cpu.dcache.ReadReq_misses::total           109                       # number of ReadReq misses
system.cpu.dcache.ReadReq_miss_latency::.cpu.data      7165250                       # number of ReadReq miss cycles
system.cpu.dcache.ReadReq_miss_latency::total      7165250                       # number of ReadReq miss cycles
system.cpu.dcache.ReadReq_accesses::.cpu.data         1947                       # number of ReadReq accesses(hits+misses)
system.cpu.dcache.ReadReq_accesses::total         1947                       # number of ReadReq accesses(hits+misses)
system.cpu.dcache.ReadReq_miss_rate::.cpu.data     0.055984                       # miss rate for ReadReq accesses
system.cpu.dcache.ReadReq_miss_rate::total     0.055984                       # miss rate for ReadReq accesses
system.cpu.dcache.ReadReq_avg_miss_latency::.cpu.data 65736.238532                       # average ReadReq miss latency
system.cpu.dcache.ReadReq_avg_miss_latency::total 65736.238532                       # average ReadReq miss latency
system.cpu.dcache.ReadReq_mshr_hits::.cpu.data            5                       # number of ReadReq MSHR hits
system.cpu.dcache.ReadReq_mshr_hits::total            5                       # number of ReadReq MSHR hits
system.cpu.dcache.ReadReq_mshr_misses::.cpu.data          104                       # number of ReadReq MSHR misses
system.cpu.dcache.ReadReq_mshr_misses::total          104                       # number of ReadReq MSHR misses
system.cpu.dcache.ReadReq_mshr_miss_latency::.cpu.data      6777250                       # number of ReadReq MSHR miss cycles
system.cpu.dcache.ReadReq_mshr_miss_latency::total      6777250                       # number of ReadReq MSHR miss cycles
system.cpu.dcache.ReadReq_mshr_miss_rate::.cpu.data     0.053416                       # mshr miss rate for ReadReq accesses
system.cpu.dcache.ReadReq_mshr_miss_rate::total     0.053416                       # mshr miss rate for ReadReq accesses
system.cpu.dcache.ReadReq_avg_mshr_miss_latency::.cpu.data 65165.865385                       # average ReadReq mshr miss latency
system.cpu.dcache.ReadReq_avg_mshr_miss_latency::total 65165.865385                       # average ReadReq mshr miss latency
system.cpu.dcache.WriteReq_hits::.cpu.data         1524                       # number of WriteReq hits
system.cpu.dcache.WriteReq_hits::total           1524                       # number of WriteReq hits
system.cpu.dcache.WriteReq_misses::.cpu.data          125                       # number of WriteReq misses
system.cpu.dcache.WriteReq_misses::total          125                       # number of WriteReq misses
system.cpu.dcache.WriteReq_miss_latency::.cpu.data      8784000                       # number of WriteReq miss cycles
system.cpu.dcache.WriteReq_miss_latency::total      8784000                       # number of WriteReq miss cycles
system.cpu.dcache.WriteReq_accesses::.cpu.data         1649                       # number of WriteReq accesses(hits+misses)
system.cpu.dcache.WriteReq_accesses::total         1649                       # number of WriteReq accesses(hits+misses)
system.cpu.dcache.WriteReq_miss_rate::.cpu.data     0.075804                       # miss rate for WriteReq accesses
system.cpu.dcache.WriteReq_miss_rate::total     0.075804                       # miss rate for WriteReq accesses
system.cpu.dcache.WriteReq_avg_miss_latency::.cpu.data        70272                       # average WriteReq miss latency
system.cpu.dcache.WriteReq_avg_miss_latency::total        70272                       # average WriteReq miss latency
system.cpu.dcache.WriteReq_mshr_hits::.cpu.data           51                       # number of WriteReq MSHR hits
system.cpu.dcache.WriteReq_mshr_hits::total           51                       # number of WriteReq MSHR hits
system.cpu.dcache.WriteReq_mshr_misses::.cpu.data           74                       # number of WriteReq MSHR misses
system.cpu.dcache.WriteReq_mshr_misses::total           74                       # number of WriteReq MSHR misses
system.cpu.dcache.WriteReq_mshr_miss_latency::.cpu.data      5339750                       # number of WriteReq MSHR miss cycles
system.cpu.dcache.WriteReq_mshr_miss_latency::total      5339750                       # number of WriteReq MSHR miss cycles
system.cpu.dcache.WriteReq_mshr_miss_rate::.cpu.data     0.044876                       # mshr miss rate for WriteReq accesses
system.cpu.dcache.WriteReq_mshr_miss_rate::total     0.044876                       # mshr miss rate for WriteReq accesses
system.cpu.dcache.WriteReq_avg_mshr_miss_latency::.cpu.data 72158.783784                       # average WriteReq mshr miss latency
system.cpu.dcache.WriteReq_avg_mshr_miss_latency::total 72158.783784                       # average WriteReq mshr miss latency
system.cpu.dcache.SoftPFReq_hits::.cpu.data           29                       # number of SoftPFReq hits
system.cpu.dcache.SoftPFReq_hits::total            29                       # number of SoftPFReq hits
system.cpu.dcache.SoftPFReq_misses::.cpu.data           20                       # number of SoftPFReq misses
system.cpu.dcache.SoftPFReq_misses::total           20                       # number of SoftPFReq misses
system.cpu.dcache.SoftPFReq_accesses::.cpu.data           49                       # number of SoftPFReq accesses(hits+misses)
system.cpu.dcache.SoftPFReq_accesses::total           49                       # number of SoftPFReq accesses(hits+misses)
system.cpu.dcache.SoftPFReq_miss_rate::.cpu.data     0.408163                       # miss rate for SoftPFReq accesses
system.cpu.dcache.SoftPFReq_miss_rate::total     0.408163                       # miss rate for SoftPFReq accesses
system.cpu.dcache.SoftPFReq_mshr_misses::.cpu.data           15                       # number of SoftPFReq MSHR misses
system.cpu.dcache.SoftPFReq_mshr_misses::total           15                       # number of SoftPFReq MSHR misses
system.cpu.dcache.SoftPFReq_mshr_miss_latency::.cpu.data      1061250                       # number of SoftPFReq MSHR miss cycles
system.cpu.dcache.SoftPFReq_mshr_miss_latency::total      1061250                       # number of SoftPFReq MSHR miss cycles
system.cpu.dcache.SoftPFReq_mshr_miss_rate::.cpu.data     0.306122                       # mshr miss rate for SoftPFReq accesses
system.cpu.dcache.SoftPFReq_mshr_miss_rate::total     0.306122                       # mshr miss rate for SoftPFReq accesses
system.cpu.dcache.SoftPFReq_avg_mshr_miss_latency::.cpu.data        70750                       # average SoftPFReq mshr miss latency
system.cpu.dcache.SoftPFReq_avg_mshr_miss_latency::total        70750                       # average SoftPFReq mshr miss latency
system.cpu.dcache.LoadLockedReq_hits::.cpu.data           19                       # number of LoadLockedReq hits
system.cpu.dcache.LoadLockedReq_hits::total           19                       # number of LoadLockedReq hits
system.cpu.dcache.LoadLockedReq_misses::.cpu.data            1                       # number of LoadLockedReq misses
system.cpu.dcache.LoadLockedReq_misses::total            1                       # number of LoadLockedReq misses
system.cpu.dcache.LoadLockedReq_miss_latency::.cpu.data        63000                       # number of LoadLockedReq miss cycles
system.cpu.dcache.LoadLockedReq_miss_latency::total        63000                       # number of LoadLockedReq miss cycles
system.cpu.dcache.LoadLockedReq_accesses::.cpu.data           20                       # number of LoadLockedReq accesses(hits+misses)
system.cpu.dcache.LoadLockedReq_accesses::total           20                       # number of LoadLockedReq accesses(hits+misses)
system.cpu.dcache.LoadLockedReq_miss_rate::.cpu.data     0.050000                       # miss rate for LoadLockedReq accesses
system.cpu.dcache.LoadLockedReq_miss_rate::total     0.050000                       # miss rate for LoadLockedReq accesses
system.cpu.dcache.LoadLockedReq_avg_miss_latency::.cpu.data        63000                       # average LoadLockedReq miss latency
system.cpu.dcache.LoadLockedReq_avg_miss_latency::total        63000                       # average LoadLockedReq miss latency
system.cpu.dcache.LoadLockedReq_mshr_misses::.cpu.data            1                       # number of LoadLockedReq MSHR misses
system.cpu.dcache.LoadLockedReq_mshr_misses::total            1                       # number of LoadLockedReq MSHR misses
system.cpu.dcache.LoadLockedReq_mshr_miss_latency::.cpu.data        62500                       # number of LoadLockedReq MSHR miss cycles
system.cpu.dcache.LoadLockedReq_mshr_miss_latency::total        62500                       # number of LoadLockedReq MSHR miss cycles
system.cpu.dcache.LoadLockedReq_mshr_miss_rate::.cpu.data     0.050000                       # mshr miss rate for LoadLockedReq accesses
system.cpu.dcache.LoadLockedReq_mshr_miss_rate::total     0.050000                       # mshr miss rate for LoadLockedReq accesses
system.cpu.dcache.LoadLockedReq_avg_mshr_miss_latency::.cpu.data        62500                       # average LoadLockedReq mshr miss latency
system.cpu.dcache.LoadLockedReq_avg_mshr_miss_latency::total        62500                       # average LoadLockedReq mshr miss latency
system.cpu.dcache.StoreCondReq_hits::.cpu.data           20                       # number of StoreCondReq hits
system.cpu.dcache.StoreCondReq_hits::total           20                       # number of StoreCondReq hits
system.cpu.dcache.StoreCondReq_accesses::.cpu.data           20                       # number of StoreCondReq accesses(hits+misses)
system.cpu.dcache.StoreCondReq_accesses::total           20                       # number of StoreCondReq accesses(hits+misses)
system.cpu.dcache.power_state.pwrStateResidencyTicks::UNDEFINED     37707250                       # Cumulative time (in ticks) in various power states
system.cpu.dcache.tags.tagsinuse           107.421751                       # Cycle average of tags in use
system.cpu.dcache.tags.total_refs                3624                       # Total number of references to valid blocks.
system.cpu.dcache.tags.sampled_refs               194                       # Sample count of references to valid blocks.
system.cpu.dcache.tags.avg_refs             18.680412                       # Average number of references to valid blocks.
system.cpu.dcache.tags.warmup_cycle            158250                       # Cycle when the warmup percentage was hit.
system.cpu.dcache.tags.occ_blocks::.cpu.data   107.421751                       # Average occupied blocks per requestor
system.cpu.dcache.tags.occ_percent::.cpu.data     0.104904                       # Average percentage of cache occupancy
system.cpu.dcache.tags.occ_percent::total     0.104904                       # Average percentage of cache occupancy
system.cpu.dcache.tags.occ_task_id_blocks::1024          192                       # Occupied blocks per task id
system.cpu.dcache.tags.age_task_id_blocks_1024::0           39                       # Occupied blocks per task id
system.cpu.dcache.tags.age_task_id_blocks_1024::1          153                       # Occupied blocks per task id
system.cpu.dcache.tags.occ_task_id_percent::1024     0.187500                       # Percentage of cache occupancy per task id
system.cpu.dcache.tags.tag_accesses              7564                       # Number of tag accesses
system.cpu.dcache.tags.data_accesses             7564                       # Number of data accesses
system.cpu.dcache.tags.power_state.pwrStateResidencyTicks::UNDEFINED     37707250                       # Cumulative time (in ticks) in various power states
system.cpu.dtb.instHits                             0                       # ITB inst hits
system.cpu.dtb.instMisses                           0                       # ITB inst misses
system.cpu.dtb.readHits                             0                       # DTB read hits
system.cpu.dtb.readMisses                           0                       # DTB read misses
system.cpu.dtb.writeHits                            0                       # DTB write hits
system.cpu.dtb.writeMisses                          0                       # DTB write misses
system.cpu.dtb.inserts                              0                       # Number of times an entry is inserted into the TLB
system.cpu.dtb.flushTlb                             0                       # Number of times complete TLB was flushed
system.cpu.dtb.flushTlbMva                          0                       # Number of times TLB was flushed by MVA
system.cpu.dtb.flushTlbMvaAsid                      0                       # Number of times TLB was flushed by MVA & ASID
system.cpu.dtb.flushTlbAsid                         0                       # Number of times TLB was flushed by ASID
system.cpu.dtb.flushedEntries                       0                       # Number of entries that have been flushed from TLB
system.cpu.dtb.alignFaults                          0                       # Number of TLB faults due to alignment restrictions
system.cpu.dtb.prefetchFaults                       0                       # Number of TLB faults due to prefetch
system.cpu.dtb.domainFaults                         0                       # Number of TLB faults due to domain restrictions
system.cpu.dtb.permsFaults                          0                       # Number of TLB faults due to permissions restrictions
system.cpu.dtb.readAccesses                         0                       # DTB read accesses
system.cpu.dtb.writeAccesses                        0                       # DTB write accesses
system.cpu.dtb.instAccesses                         0                       # ITB inst accesses
system.cpu.dtb.hits                                 0                       # Total TLB (inst and data) hits
system.cpu.dtb.misses                               0                       # Total TLB (inst and data) misses
system.cpu.dtb.accesses                             0                       # Total TLB (inst and data) accesses
system.cpu.dtb.stage2_mmu.stage2_tlb.instHits            0                       # ITB inst hits
system.cpu.dtb.stage2_mmu.stage2_tlb.instMisses            0                       # ITB inst misses
system.cpu.dtb.stage2_mmu.stage2_tlb.readHits            0                       # DTB read hits
system.cpu.dtb.stage2_mmu.stage2_tlb.readMisses            0                       # DTB read misses
system.cpu.dtb.stage2_mmu.stage2_tlb.writeHits            0                       # DTB write hits
system.cpu.dtb.stage2_mmu.stage2_tlb.writeMisses            0                       # DTB write misses
system.cpu.dtb.stage2_mmu.stage2_tlb.inserts            0                       # Number of times an entry is inserted into the TLB
system.cpu.dtb.stage2_mmu.stage2_tlb.flushTlb            0                       # Number of times complete TLB was flushed
system.cpu.dtb.stage2_mmu.stage2_tlb.flushTlbMva            0                       # Number of times TLB was flushed by MVA
system.cpu.dtb.stage2_mmu.stage2_tlb.flushTlbMvaAsid            0                       # Number of times TLB was flushed by MVA & ASID
system.cpu.dtb.stage2_mmu.stage2_tlb.flushTlbAsid            0                       # Number of times TLB was flushed by ASID
system.cpu.dtb.stage2_mmu.stage2_tlb.flushedEntries            0                       # Number of entries that have been flushed from TLB
system.cpu.dtb.stage2_mmu.stage2_tlb.alignFaults            0                       # Number of TLB faults due to alignment restrictions
system.cpu.dtb.stage2_mmu.stage2_tlb.prefetchFaults            0                       # Number of TLB faults due to prefetch
system.cpu.dtb.stage2_mmu.stage2_tlb.domainFaults            0                       # Number of TLB faults due to domain restrictions
system.cpu.dtb.stage2_mmu.stage2_tlb.permsFaults            0                       # Number of TLB faults due to permissions restrictions
system.cpu.dtb.stage2_mmu.stage2_tlb.readAccesses            0                       # DTB read accesses
system.cpu.dtb.stage2_mmu.stage2_tlb.writeAccesses            0                       # DTB write accesses
system.cpu.dtb.stage2_mmu.stage2_tlb.instAccesses            0                       # ITB inst accesses
system.cpu.dtb.stage2_mmu.stage2_tlb.hits            0                       # Total TLB (inst and data) hits
system.cpu.dtb.stage2_mmu.stage2_tlb.misses            0                       # Total TLB (inst and data) misses
system.cpu.dtb.stage2_mmu.stage2_tlb.accesses            0                       # Total TLB (inst and data) accesses
system.cpu.dtb.stage2_mmu.stage2_tlb.walker.walks            0                       # Table walker walks requested
system.cpu.dtb.stage2_mmu.stage2_tlb.walker.requestOrigin_Requested::Data            0                       # Table walker requests started/completed, data/inst
system.cpu.dtb.stage2_mmu.stage2_tlb.walker.requestOrigin_Requested::Inst            0                       # Table walker requests started/completed, data/inst
system.cpu.dtb.stage2_mmu.stage2_tlb.walker.requestOrigin_Requested::total            0                       # Table walker requests started/completed, data/inst
system.cpu.dtb.stage2_mmu.stage2_tlb.walker.requestOrigin_Completed::Data            0                       # Table walker requests started/completed, data/inst
system.cpu.dtb.stage2_mmu.stage2_tlb.walker.requestOrigin_Completed::Inst            0                       # Table walker requests started/completed, data/inst
system.cpu.dtb.stage2_mmu.stage2_tlb.walker.requestOrigin_Completed::total            0                       # Table walker requests started/completed, data/inst
system.cpu.dtb.stage2_mmu.stage2_tlb.walker.requestOrigin::total            0                       # Table walker requests started/completed, data/inst
system.cpu.dtb.stage2_mmu.stage2_tlb.walker.power_state.pwrStateResidencyTicks::UNDEFINED     37707250                       # Cumulative time (in ticks) in various power states
system.cpu.dtb.walker.walks                         0                       # Table walker walks requested
system.cpu.dtb.walker.requestOrigin_Requested::Data            0                       # Table walker requests started/completed, data/inst
system.cpu.dtb.walker.requestOrigin_Requested::Inst            0                       # Table walker requests started/completed, data/inst
system.cpu.dtb.walker.requestOrigin_Requested::total            0                       # Table walker requests started/completed, data/inst
system.cpu.dtb.walker.requestOrigin_Completed::Data            0                       # Table walker requests started/completed, data/inst
system.cpu.dtb.walker.requestOrigin_Completed::Inst            0                       # Table walker requests started/completed, data/inst
system.cpu.dtb.walker.requestOrigin_Completed::total            0                       # Table walker requests started/completed, data/inst
system.cpu.dtb.walker.requestOrigin::total            0                       # Table walker requests started/completed, data/inst
system.cpu.dtb.walker.power_state.pwrStateResidencyTicks::UNDEFINED     37707250                       # Cumulative time (in ticks) in various power states
system.cpu.fetch2.intInstructions               10560                       # Number of integer instructions successfully decoded
system.cpu.fetch2.fpInstructions                    0                       # Number of floating point instructions successfully decoded
system.cpu.fetch2.vecInstructions                   0                       # Number of SIMD instructions successfully decoded
system.cpu.fetch2.loadInstructions               2491                       # Number of memory load instructions successfully decoded
system.cpu.fetch2.storeInstructions              1342                       # Number of memory store instructions successfully decoded
system.cpu.fetch2.amoInstructions                   0                       # Number of memory atomic instructions successfully decoded
system.cpu.icache.demand_hits::.cpu.inst         3515                       # number of demand (read+write) hits
system.cpu.icache.demand_hits::total             3515                       # number of demand (read+write) hits
system.cpu.icache.overall_hits::.cpu.inst         3515                       # number of overall hits
system.cpu.icache.overall_hits::total            3515                       # number of overall hits
system.cpu.icache.demand_misses::.cpu.inst          450                       # number of demand (read+write) misses
system.cpu.icache.demand_misses::total            450                       # number of demand (read+write) misses
system.cpu.icache.overall_misses::.cpu.inst          450                       # number of overall misses
system.cpu.icache.overall_misses::total           450                       # number of overall misses
system.cpu.icache.demand_miss_latency::.cpu.inst     28521250                       # number of demand (read+write) miss cycles
system.cpu.icache.demand_miss_latency::total     28521250                       # number of demand (read+write) miss cycles
system.cpu.icache.overall_miss_latency::.cpu.inst     28521250                       # number of overall miss cycles
system.cpu.icache.overall_miss_latency::total     28521250                       # number of overall miss cycles
system.cpu.icache.demand_accesses::.cpu.inst         3965                       # number of demand (read+write) accesses
system.cpu.icache.demand_accesses::total         3965                       # number of demand (read+write) accesses
system.cpu.icache.overall_accesses::.cpu.inst         3965                       # number of overall (read+write) accesses
system.cpu.icache.overall_accesses::total         3965                       # number of overall (read+write) accesses
system.cpu.icache.demand_miss_rate::.cpu.inst     0.113493                       # miss rate for demand accesses
system.cpu.icache.demand_miss_rate::total     0.113493                       # miss rate for demand accesses
system.cpu.icache.overall_miss_rate::.cpu.inst     0.113493                       # miss rate for overall accesses
system.cpu.icache.overall_miss_rate::total     0.113493                       # miss rate for overall accesses
system.cpu.icache.demand_avg_miss_latency::.cpu.inst 63380.555556                       # average overall miss latency
system.cpu.icache.demand_avg_miss_latency::total 63380.555556                       # average overall miss latency
system.cpu.icache.overall_avg_miss_latency::.cpu.inst 63380.555556                       # average overall miss latency
system.cpu.icache.overall_avg_miss_latency::total 63380.555556                       # average overall miss latency
system.cpu.icache.blocked_cycles::no_mshrs            0                       # number of cycles access was blocked
system.cpu.icache.blocked_cycles::no_targets            0                       # number of cycles access was blocked
system.cpu.icache.blocked::no_mshrs                 0                       # number of cycles access was blocked
system.cpu.icache.blocked::no_targets               0                       # number of cycles access was blocked
system.cpu.icache.avg_blocked_cycles::no_mshrs          nan                       # average number of cycles each access was blocked
system.cpu.icache.avg_blocked_cycles::no_targets          nan                       # average number of cycles each access was blocked
system.cpu.icache.writebacks::.writebacks          103                       # number of writebacks
system.cpu.icache.writebacks::total               103                       # number of writebacks
system.cpu.icache.demand_mshr_misses::.cpu.inst          450                       # number of demand (read+write) MSHR misses
system.cpu.icache.demand_mshr_misses::total          450                       # number of demand (read+write) MSHR misses
system.cpu.icache.overall_mshr_misses::.cpu.inst          450                       # number of overall MSHR misses
system.cpu.icache.overall_mshr_misses::total          450                       # number of overall MSHR misses
system.cpu.icache.demand_mshr_miss_latency::.cpu.inst     28296250                       # number of demand (read+write) MSHR miss cycles
system.cpu.icache.demand_mshr_miss_latency::total     28296250                       # number of demand (read+write) MSHR miss cycles
system.cpu.icache.overall_mshr_miss_latency::.cpu.inst     28296250                       # number of overall MSHR miss cycles
system.cpu.icache.overall_mshr_miss_latency::total     28296250                       # number of overall MSHR miss cycles
system.cpu.icache.demand_mshr_miss_rate::.cpu.inst     0.113493                       # mshr miss rate for demand accesses
system.cpu.icache.demand_mshr_miss_rate::total     0.113493                       # mshr miss rate for demand accesses
system.cpu.icache.overall_mshr_miss_rate::.cpu.inst     0.113493                       # mshr miss rate for overall accesses
system.cpu.icache.overall_mshr_miss_rate::total     0.113493                       # mshr miss rate for overall accesses
system.cpu.icache.demand_avg_mshr_miss_latency::.cpu.inst 62880.555556                       # average overall mshr miss latency
system.cpu.icache.demand_avg_mshr_miss_latency::total 62880.555556                       # average overall mshr miss latency
system.cpu.icache.overall_avg_mshr_miss_latency::.cpu.inst 62880.555556                       # average overall mshr miss latency
system.cpu.icache.overall_avg_mshr_miss_latency::total 62880.555556                       # average overall mshr miss latency
system.cpu.icache.replacements                    103                       # number of replacements
system.cpu.icache.ReadReq_hits::.cpu.inst         3515                       # number of ReadReq hits
system.cpu.icache.ReadReq_hits::total            3515                       # number of ReadReq hits
system.cpu.icache.ReadReq_misses::.cpu.inst          450                       # number of ReadReq misses
system.cpu.icache.ReadReq_misses::total           450                       # number of ReadReq misses
system.cpu.icache.ReadReq_miss_latency::.cpu.inst     28521250                       # number of ReadReq miss cycles
system.cpu.icache.ReadReq_miss_latency::total     28521250                       # number of ReadReq miss cycles
system.cpu.icache.ReadReq_accesses::.cpu.inst         3965                       # number of ReadReq accesses(hits+misses)
system.cpu.icache.ReadReq_accesses::total         3965                       # number of ReadReq accesses(hits+misses)
system.cpu.icache.ReadReq_miss_rate::.cpu.inst     0.113493                       # miss rate for ReadReq accesses
system.cpu.icache.ReadReq_miss_rate::total     0.113493                       # miss rate for ReadReq accesses
system.cpu.icache.ReadReq_avg_miss_latency::.cpu.inst 63380.555556                       # average ReadReq miss latency
system.cpu.icache.ReadReq_avg_miss_latency::total 63380.555556                       # average ReadReq miss latency
system.cpu.icache.ReadReq_mshr_misses::.cpu.inst          450                       # number of ReadReq MSHR misses
system.cpu.icache.ReadReq_mshr_misses::total          450                       # number of ReadReq MSHR misses
system.cpu.icache.ReadReq_mshr_miss_latency::.cpu.inst     28296250                       # number of ReadReq MSHR miss cycles
system.cpu.icache.ReadReq_mshr_miss_latency::total     28296250                       # number of ReadReq MSHR miss cycles
system.cpu.icache.ReadReq_mshr_miss_rate::.cpu.inst     0.113493                       # mshr miss rate for ReadReq accesses
system.cpu.icache.ReadReq_mshr_miss_rate::total     0.113493                       # mshr miss rate for ReadReq accesses
system.cpu.icache.ReadReq_avg_mshr_miss_latency::.cpu.inst 62880.555556                       # average ReadReq mshr miss latency
system.cpu.icache.ReadReq_avg_mshr_miss_latency::total 62880.555556                       # average ReadReq mshr miss latency
system.cpu.icache.power_state.pwrStateResidencyTicks::UNDEFINED     37707250                       # Cumulative time (in ticks) in various power states
system.cpu.icache.tags.tagsinuse           199.814197                       # Cycle average of tags in use
system.cpu.icache.tags.total_refs                3965                       # Total number of references to valid blocks.
system.cpu.icache.tags.sampled_refs               450                       # Sample count of references to valid blocks.
system.cpu.icache.tags.avg_refs              8.811111                       # Average number of references to valid blocks.
system.cpu.icache.tags.warmup_cycle             82250                       # Cycle when the warmup percentage was hit.
system.cpu.icache.tags.occ_blocks::.cpu.inst   199.814197                       # Average occupied blocks per requestor
system.cpu.icache.tags.occ_percent::.cpu.inst     0.390262                       # Average percentage of cache occupancy
system.cpu.icache.tags.occ_percent::total     0.390262                       # Average percentage of cache occupancy
system.cpu.icache.tags.occ_task_id_blocks::1024          347                       # Occupied blocks per task id
system.cpu.icache.tags.age_task_id_blocks_1024::0          125                       # Occupied blocks per task id
system.cpu.icache.tags.age_task_id_blocks_1024::1          222                       # Occupied blocks per task id
system.cpu.icache.tags.occ_task_id_percent::1024     0.677734                       # Percentage of cache occupancy per task id
system.cpu.icache.tags.tag_accesses              8380                       # Number of tag accesses
system.cpu.icache.tags.data_accesses             8380                       # Number of data accesses
system.cpu.icache.tags.power_state.pwrStateResidencyTicks::UNDEFINED     37707250                       # Cumulative time (in ticks) in various power states
system.cpu.itb.instHits                             0                       # ITB inst hits
system.cpu.itb.instMisses                           0                       # ITB inst misses
system.cpu.itb.readHits                             0                       # DTB read hits
system.cpu.itb.readMisses                           0                       # DTB read misses
system.cpu.itb.writeHits                            0                       # DTB write hits
system.cpu.itb.writeMisses                          0                       # DTB write misses
system.cpu.itb.inserts                              0                       # Number of times an entry is inserted into the TLB
system.cpu.itb.flushTlb                             0                       # Number of times complete TLB was flushed
system.cpu.itb.flushTlbMva                          0                       # Number of times TLB was flushed by MVA
system.cpu.itb.flushTlbMvaAsid                      0                       # Number of times TLB was flushed by MVA & ASID
system.cpu.itb.flushTlbAsid                         0                       # Number of times TLB was flushed by ASID
system.cpu.itb.flushedEntries                       0                       # Number of entries that have been flushed from TLB
system.cpu.itb.alignFaults                          0                       # Number of TLB faults due to alignment restrictions
system.cpu.itb.prefetchFaults                       0                       # Number of TLB faults due to prefetch
system.cpu.itb.domainFaults                         0                       # Number of TLB faults due to domain restrictions
system.cpu.itb.permsFaults                          0                       # Number of TLB faults due to permissions restrictions
system.cpu.itb.readAccesses                         0                       # DTB read accesses
system.cpu.itb.writeAccesses                        0                       # DTB write accesses
system.cpu.itb.instAccesses                         0                       # ITB inst accesses
system.cpu.itb.hits                                 0                       # Total TLB (inst and data) hits
system.cpu.itb.misses                               0                       # Total TLB (inst and data) misses
system.cpu.itb.accesses                             0                       # Total TLB (inst and data) accesses
system.cpu.itb.stage2_mmu.stage2_tlb.instHits            0                       # ITB inst hits
system.cpu.itb.stage2_mmu.stage2_tlb.instMisses            0                       # ITB inst misses
system.cpu.itb.stage2_mmu.stage2_tlb.readHits            0                       # DTB read hits
system.cpu.itb.stage2_mmu.stage2_tlb.readMisses            0                       # DTB read misses
system.cpu.itb.stage2_mmu.stage2_tlb.writeHits            0                       # DTB write hits
system.cpu.itb.stage2_mmu.stage2_tlb.writeMisses            0                       # DTB write misses
system.cpu.itb.stage2_mmu.stage2_tlb.inserts            0                       # Number of times an entry is inserted into the TLB
system.cpu.itb.stage2_mmu.stage2_tlb.flushTlb            0                       # Number of times complete TLB was flushed
system.cpu.itb.stage2_mmu.stage2_tlb.flushTlbMva            0                       # Number of times TLB was flushed by MVA
system.cpu.itb.stage2_mmu.stage2_tlb.flushTlbMvaAsid            0                       # Number of times TLB was flushed by MVA & ASID
system.cpu.itb.stage2_mmu.stage2_tlb.flushTlbAsid            0                       # Number of times TLB was flushed by ASID
system.cpu.itb.stage2_mmu.stage2_tlb.flushedEntries            0                       # Number of entries that have been flushed from TLB
system.cpu.itb.stage2_mmu.stage2_tlb.alignFaults            0                       # Number of TLB faults due to alignment restrictions
system.cpu.itb.stage2_mmu.stage2_tlb.prefetchFaults            0                       # Number of TLB faults due to prefetch
system.cpu.itb.stage2_mmu.stage2_tlb.domainFaults            0                       # Number of TLB faults due to domain restrictions
system.cpu.itb.stage2_mmu.stage2_tlb.permsFaults            0                       # Number of TLB faults due to permissions restrictions
system.cpu.itb.stage2_mmu.stage2_tlb.readAccesses            0                       # DTB read accesses
system.cpu.itb.stage2_mmu.stage2_tlb.writeAccesses            0                       # DTB write accesses
system.cpu.itb.stage2_mmu.stage2_tlb.instAccesses            0                       # ITB inst accesses
system.cpu.itb.stage2_mmu.stage2_tlb.hits            0                       # Total TLB (inst and data) hits
system.cpu.itb.stage2_mmu.stage2_tlb.misses            0                       # Total TLB (inst and data) misses
system.cpu.itb.stage2_mmu.stage2_tlb.accesses            0                       # Total TLB (inst and data) accesses
system.cpu.itb.stage2_mmu.stage2_tlb.walker.walks            0                       # Table walker walks requested
system.cpu.itb.stage2_mmu.stage2_tlb.walker.requestOrigin_Requested::Data            0                       # Table walker requests started/completed, data/inst
system.cpu.itb.stage2_mmu.stage2_tlb.walker.requestOrigin_Requested::Inst            0                       # Table walker requests started/completed, data/inst
system.cpu.itb.stage2_mmu.stage2_tlb.walker.requestOrigin_Requested::total            0                       # Table walker requests started/completed, data/inst
system.cpu.itb.stage2_mmu.stage2_tlb.walker.requestOrigin_Completed::Data            0                       # Table walker requests started/completed, data/inst
system.cpu.itb.stage2_mmu.stage2_tlb.walker.requestOrigin_Completed::Inst            0                       # Table walker requests started/completed, data/inst
system.cpu.itb.stage2_mmu.stage2_tlb.walker.requestOrigin_Completed::total            0                       # Table walker requests started/completed, data/inst
system.cpu.itb.stage2_mmu.stage2_tlb.walker.requestOrigin::total            0                       # Table walker requests started/completed, data/inst
system.cpu.itb.stage2_mmu.stage2_tlb.walker.power_state.pwrStateResidencyTicks::UNDEFINED     37707250                       # Cumulative time (in ticks) in various power states
system.cpu.itb.walker.walks                         0                       # Table walker walks requested
system.cpu.itb.walker.requestOrigin_Requested::Data            0                       # Table walker requests started/completed, data/inst
system.cpu.itb.walker.requestOrigin_Requested::Inst            0                       # Table walker requests started/completed, data/inst
system.cpu.itb.walker.requestOrigin_Requested::total            0                       # Table walker requests started/completed, data/inst
system.cpu.itb.walker.requestOrigin_Completed::Data            0                       # Table walker requests started/completed, data/inst
system.cpu.itb.walker.requestOrigin_Completed::Inst            0                       # Table walker requests started/completed, data/inst
system.cpu.itb.walker.requestOrigin_Completed::total            0                       # Table walker requests started/completed, data/inst
system.cpu.itb.walker.requestOrigin::total            0                       # Table walker requests started/completed, data/inst
system.cpu.itb.walker.power_state.pwrStateResidencyTicks::UNDEFINED     37707250                       # Cumulative time (in ticks) in various power states
system.cpu.power_state.pwrStateResidencyTicks::ON     37707250                       # Cumulative time (in ticks) in various power states
system.cpu.thread0.numInsts                     10062                       # Number of Instructions committed
system.cpu.thread0.numOps                       11522                       # Number of Ops committed
system.cpu.thread0.numMemRefs                       0                       # Number of Memory References
system.cpu_clk_domain.clock                       250                       # Clock period in ticks
system.cpu_voltage_domain.voltage                   1                       # Voltage in Volts
system.l2.demand_hits::.cpu.inst                   24                       # number of demand (read+write) hits
system.l2.demand_hits::.cpu.data                    7                       # number of demand (read+write) hits
system.l2.demand_hits::total                       31                       # number of demand (read+write) hits
system.l2.overall_hits::.cpu.inst                  24                       # number of overall hits
system.l2.overall_hits::.cpu.data                   7                       # number of overall hits
system.l2.overall_hits::total                      31                       # number of overall hits
system.l2.demand_misses::.cpu.inst                426                       # number of demand (read+write) misses
system.l2.demand_misses::.cpu.data                187                       # number of demand (read+write) misses
system.l2.demand_misses::total                    613                       # number of demand (read+write) misses
system.l2.overall_misses::.cpu.inst               426                       # number of overall misses
system.l2.overall_misses::.cpu.data               187                       # number of overall misses
system.l2.overall_misses::total                   613                       # number of overall misses
system.l2.demand_miss_latency::.cpu.inst     27822500                       # number of demand (read+write) miss cycles
system.l2.demand_miss_latency::.cpu.data     13053250                       # number of demand (read+write) miss cycles
system.l2.demand_miss_latency::total         40875750                       # number of demand (read+write) miss cycles
system.l2.overall_miss_latency::.cpu.inst     27822500                       # number of overall miss cycles
system.l2.overall_miss_latency::.cpu.data     13053250                       # number of overall miss cycles
system.l2.overall_miss_latency::total        40875750                       # number of overall miss cycles
system.l2.demand_accesses::.cpu.inst              450                       # number of demand (read+write) accesses
system.l2.demand_accesses::.cpu.data              194                       # number of demand (read+write) accesses
system.l2.demand_accesses::total                  644                       # number of demand (read+write) accesses
system.l2.overall_accesses::.cpu.inst             450                       # number of overall (read+write) accesses
system.l2.overall_accesses::.cpu.data             194                       # number of overall (read+write) accesses
system.l2.overall_accesses::total                 644                       # number of overall (read+write) accesses
system.l2.demand_miss_rate::.cpu.inst        0.946667                       # miss rate for demand accesses
system.l2.demand_miss_rate::.cpu.data        0.963918                       # miss rate for demand accesses
system.l2.demand_miss_rate::total            0.951863                       # miss rate for demand accesses
system.l2.overall_miss_rate::.cpu.inst       0.946667                       # miss rate for overall accesses
system.l2.overall_miss_rate::.cpu.data       0.963918                       # miss rate for overall accesses
system.l2.overall_miss_rate::total           0.951863                       # miss rate for overall accesses
system.l2.demand_avg_miss_latency::.cpu.inst 65311.032864                       # average overall miss latency
system.l2.demand_avg_miss_latency::.cpu.data 69803.475936                       # average overall miss latency
system.l2.demand_avg_miss_latency::total 66681.484502                       # average overall miss latency
system.l2.overall_avg_miss_latency::.cpu.inst 65311.032864                       # average overall miss latency
system.l2.overall_avg_miss_latency::.cpu.data 69803.475936                       # average overall miss latency
system.l2.overall_avg_miss_latency::total 66681.484502                       # average overall miss latency
system.l2.blocked_cycles::no_mshrs                  0                       # number of cycles access was blocked
system.l2.blocked_cycles::no_targets                0                       # number of cycles access was blocked
system.l2.blocked::no_mshrs                         0                       # number of cycles access was blocked
system.l2.blocked::no_targets                       0                       # number of cycles access was blocked
system.l2.avg_blocked_cycles::no_mshrs            nan                       # average number of cycles each access was blocked
system.l2.avg_blocked_cycles::no_targets          nan                       # average number of cycles each access was blocked
system.l2.demand_mshr_hits::.cpu.inst               1                       # number of demand (read+write) MSHR hits
system.l2.demand_mshr_hits::.cpu.data               5                       # number of demand (read+write) MSHR hits
system.l2.demand_mshr_hits::total                   6                       # number of demand (read+write) MSHR hits
system.l2.overall_mshr_hits::.cpu.inst              1                       # number of overall MSHR hits
system.l2.overall_mshr_hits::.cpu.data              5                       # number of overall MSHR hits
system.l2.overall_mshr_hits::total                  6                       # number of overall MSHR hits
system.l2.demand_mshr_misses::.cpu.inst           425                       # number of demand (read+write) MSHR misses
system.l2.demand_mshr_misses::.cpu.data           182                       # number of demand (read+write) MSHR misses
system.l2.demand_mshr_misses::total               607                       # number of demand (read+write) MSHR misses
system.l2.overall_mshr_misses::.cpu.inst          425                       # number of overall MSHR misses
system.l2.overall_mshr_misses::.cpu.data          182                       # number of overall MSHR misses
system.l2.overall_mshr_misses::total              607                       # number of overall MSHR misses
system.l2.demand_mshr_miss_latency::.cpu.inst     25639750                       # number of demand (read+write) MSHR miss cycles
system.l2.demand_mshr_miss_latency::.cpu.data     11857750                       # number of demand (read+write) MSHR miss cycles
system.l2.demand_mshr_miss_latency::total     37497500                       # number of demand (read+write) MSHR miss cycles
system.l2.overall_mshr_miss_latency::.cpu.inst     25639750                       # number of overall MSHR miss cycles
system.l2.overall_mshr_miss_latency::.cpu.data     11857750                       # number of overall MSHR miss cycles
system.l2.overall_mshr_miss_latency::total     37497500                       # number of overall MSHR miss cycles
system.l2.demand_mshr_miss_rate::.cpu.inst     0.944444                       # mshr miss rate for demand accesses
system.l2.demand_mshr_miss_rate::.cpu.data     0.938144                       # mshr miss rate for demand accesses
system.l2.demand_mshr_miss_rate::total       0.942547                       # mshr miss rate for demand accesses
system.l2.overall_mshr_miss_rate::.cpu.inst     0.944444                       # mshr miss rate for overall accesses
system.l2.overall_mshr_miss_rate::.cpu.data     0.938144                       # mshr miss rate for overall accesses
system.l2.overall_mshr_miss_rate::total      0.942547                       # mshr miss rate for overall accesses
system.l2.demand_avg_mshr_miss_latency::.cpu.inst 60328.823529                       # average overall mshr miss latency
system.l2.demand_avg_mshr_miss_latency::.cpu.data 65152.472527                       # average overall mshr miss latency
system.l2.demand_avg_mshr_miss_latency::total 61775.123558                       # average overall mshr miss latency
system.l2.overall_avg_mshr_miss_latency::.cpu.inst 60328.823529                       # average overall mshr miss latency
system.l2.overall_avg_mshr_miss_latency::.cpu.data 65152.472527                       # average overall mshr miss latency
system.l2.overall_avg_mshr_miss_latency::total 61775.123558                       # average overall mshr miss latency
system.l2.replacements                              0                       # number of replacements
system.l2.WritebackClean_hits::.writebacks           97                       # number of WritebackClean hits
system.l2.WritebackClean_hits::total               97                       # number of WritebackClean hits
system.l2.WritebackClean_accesses::.writebacks           97                       # number of WritebackClean accesses(hits+misses)
system.l2.WritebackClean_accesses::total           97                       # number of WritebackClean accesses(hits+misses)
system.l2.ReadExReq_misses::.cpu.data              74                       # number of ReadExReq misses
system.l2.ReadExReq_misses::total                  74                       # number of ReadExReq misses
system.l2.ReadExReq_miss_latency::.cpu.data      5284250                       # number of ReadExReq miss cycles
system.l2.ReadExReq_miss_latency::total       5284250                       # number of ReadExReq miss cycles
system.l2.ReadExReq_accesses::.cpu.data            74                       # number of ReadExReq accesses(hits+misses)
system.l2.ReadExReq_accesses::total                74                       # number of ReadExReq accesses(hits+misses)
system.l2.ReadExReq_miss_rate::.cpu.data            1                       # miss rate for ReadExReq accesses
system.l2.ReadExReq_miss_rate::total                1                       # miss rate for ReadExReq accesses
system.l2.ReadExReq_avg_miss_latency::.cpu.data 71408.783784                       # average ReadExReq miss latency
system.l2.ReadExReq_avg_miss_latency::total 71408.783784                       # average ReadExReq miss latency
system.l2.ReadExReq_mshr_misses::.cpu.data           74                       # number of ReadExReq MSHR misses
system.l2.ReadExReq_mshr_misses::total             74                       # number of ReadExReq MSHR misses
system.l2.ReadExReq_mshr_miss_latency::.cpu.data      4914250                       # number of ReadExReq MSHR miss cycles
system.l2.ReadExReq_mshr_miss_latency::total      4914250                       # number of ReadExReq MSHR miss cycles
system.l2.ReadExReq_mshr_miss_rate::.cpu.data            1                       # mshr miss rate for ReadExReq accesses
system.l2.ReadExReq_mshr_miss_rate::total            1                       # mshr miss rate for ReadExReq accesses
system.l2.ReadExReq_avg_mshr_miss_latency::.cpu.data 66408.783784                       # average ReadExReq mshr miss latency
system.l2.ReadExReq_avg_mshr_miss_latency::total 66408.783784                       # average ReadExReq mshr miss latency
system.l2.ReadCleanReq_hits::.cpu.inst             24                       # number of ReadCleanReq hits
system.l2.ReadCleanReq_hits::total                 24                       # number of ReadCleanReq hits
system.l2.ReadCleanReq_misses::.cpu.inst          426                       # number of ReadCleanReq misses
system.l2.ReadCleanReq_misses::total              426                       # number of ReadCleanReq misses
system.l2.ReadCleanReq_miss_latency::.cpu.inst     27822500                       # number of ReadCleanReq miss cycles
system.l2.ReadCleanReq_miss_latency::total     27822500                       # number of ReadCleanReq miss cycles
system.l2.ReadCleanReq_accesses::.cpu.inst          450                       # number of ReadCleanReq accesses(hits+misses)
system.l2.ReadCleanReq_accesses::total            450                       # number of ReadCleanReq accesses(hits+misses)
system.l2.ReadCleanReq_miss_rate::.cpu.inst     0.946667                       # miss rate for ReadCleanReq accesses
system.l2.ReadCleanReq_miss_rate::total      0.946667                       # miss rate for ReadCleanReq accesses
system.l2.ReadCleanReq_avg_miss_latency::.cpu.inst 65311.032864                       # average ReadCleanReq miss latency
system.l2.ReadCleanReq_avg_miss_latency::total 65311.032864                       # average ReadCleanReq miss latency
system.l2.ReadCleanReq_mshr_hits::.cpu.inst            1                       # number of ReadCleanReq MSHR hits
system.l2.ReadCleanReq_mshr_hits::total             1                       # number of ReadCleanReq MSHR hits
system.l2.ReadCleanReq_mshr_misses::.cpu.inst          425                       # number of ReadCleanReq MSHR misses
system.l2.ReadCleanReq_mshr_misses::total          425                       # number of ReadCleanReq MSHR misses
system.l2.ReadCleanReq_mshr_miss_latency::.cpu.inst     25639750                       # number of ReadCleanReq MSHR miss cycles
system.l2.ReadCleanReq_mshr_miss_latency::total     25639750                       # number of ReadCleanReq MSHR miss cycles
system.l2.ReadCleanReq_mshr_miss_rate::.cpu.inst     0.944444                       # mshr miss rate for ReadCleanReq accesses
system.l2.ReadCleanReq_mshr_miss_rate::total     0.944444                       # mshr miss rate for ReadCleanReq accesses
system.l2.ReadCleanReq_avg_mshr_miss_latency::.cpu.inst 60328.823529                       # average ReadCleanReq mshr miss latency
system.l2.ReadCleanReq_avg_mshr_miss_latency::total 60328.823529                       # average ReadCleanReq mshr miss latency
system.l2.ReadSharedReq_hits::.cpu.data             7                       # number of ReadSharedReq hits
system.l2.ReadSharedReq_hits::total                 7                       # number of ReadSharedReq hits
system.l2.ReadSharedReq_misses::.cpu.data          113                       # number of ReadSharedReq misses
system.l2.ReadSharedReq_misses::total             113                       # number of ReadSharedReq misses
system.l2.ReadSharedReq_miss_latency::.cpu.data      7769000                       # number of ReadSharedReq miss cycles
system.l2.ReadSharedReq_miss_latency::total      7769000                       # number of ReadSharedReq miss cycles
system.l2.ReadSharedReq_accesses::.cpu.data          120                       # number of ReadSharedReq accesses(hits+misses)
system.l2.ReadSharedReq_accesses::total           120                       # number of ReadSharedReq accesses(hits+misses)
system.l2.ReadSharedReq_miss_rate::.cpu.data     0.941667                       # miss rate for ReadSharedReq accesses
system.l2.ReadSharedReq_miss_rate::total     0.941667                       # miss rate for ReadSharedReq accesses
system.l2.ReadSharedReq_avg_miss_latency::.cpu.data 68752.212389                       # average ReadSharedReq miss latency
system.l2.ReadSharedReq_avg_miss_latency::total 68752.212389                       # average ReadSharedReq miss latency
system.l2.ReadSharedReq_mshr_hits::.cpu.data            5                       # number of ReadSharedReq MSHR hits
system.l2.ReadSharedReq_mshr_hits::total            5                       # number of ReadSharedReq MSHR hits
system.l2.ReadSharedReq_mshr_misses::.cpu.data          108                       # number of ReadSharedReq MSHR misses
system.l2.ReadSharedReq_mshr_misses::total          108                       # number of ReadSharedReq MSHR misses
system.l2.ReadSharedReq_mshr_miss_latency::.cpu.data      6943500                       # number of ReadSharedReq MSHR miss cycles
system.l2.ReadSharedReq_mshr_miss_latency::total      6943500                       # number of ReadSharedReq MSHR miss cycles
system.l2.ReadSharedReq_mshr_miss_rate::.cpu.data     0.900000                       # mshr miss rate for ReadSharedReq accesses
system.l2.ReadSharedReq_mshr_miss_rate::total     0.900000                       # mshr miss rate for ReadSharedReq accesses
system.l2.ReadSharedReq_avg_mshr_miss_latency::.cpu.data 64291.666667                       # average ReadSharedReq mshr miss latency
system.l2.ReadSharedReq_avg_mshr_miss_latency::total 64291.666667                       # average ReadSharedReq mshr miss latency
system.l2.power_state.pwrStateResidencyTicks::UNDEFINED     37707250                       # Cumulative time (in ticks) in various power states
system.l2.tags.tagsinuse                   315.714565                       # Cycle average of tags in use
system.l2.tags.total_refs                         737                       # Total number of references to valid blocks.
system.l2.tags.sampled_refs                       607                       # Sample count of references to valid blocks.
system.l2.tags.avg_refs                      1.214168                       # Average number of references to valid blocks.
system.l2.tags.warmup_cycle                     77000                       # Cycle when the warmup percentage was hit.
system.l2.tags.occ_blocks::.cpu.inst       214.913537                       # Average occupied blocks per requestor
system.l2.tags.occ_blocks::.cpu.data       100.801028                       # Average occupied blocks per requestor
system.l2.tags.occ_percent::.cpu.inst        0.006559                       # Average percentage of cache occupancy
system.l2.tags.occ_percent::.cpu.data        0.003076                       # Average percentage of cache occupancy
system.l2.tags.occ_percent::total            0.009635                       # Average percentage of cache occupancy
system.l2.tags.occ_task_id_blocks::1024           607                       # Occupied blocks per task id
system.l2.tags.age_task_id_blocks_1024::0          151                       # Occupied blocks per task id
system.l2.tags.age_task_id_blocks_1024::1          456                       # Occupied blocks per task id
system.l2.tags.occ_task_id_percent::1024     0.018524                       # Percentage of cache occupancy per task id
system.l2.tags.tag_accesses                      6551                       # Number of tag accesses
system.l2.tags.data_accesses                     6551                       # Number of data accesses
system.l2.tags.power_state.pwrStateResidencyTicks::UNDEFINED     37707250                       # Cumulative time (in ticks) in various power states
system.mem_ctrls.avgPriority_.cpu.inst::samples       425.00                       # Average QoS priority value for accepted requests
system.mem_ctrls.avgPriority_.cpu.data::samples       182.00                       # Average QoS priority value for accepted requests
system.mem_ctrls.priorityMinLatency      0.000000018750                       # per QoS priority minimum request to response latency (s)
system.mem_ctrls.priorityMaxLatency      0.000000579000                       # per QoS priority maximum request to response latency (s)
system.mem_ctrls.numReadWriteTurnArounds            0                       # Number of turnarounds from READ to WRITE
system.mem_ctrls.numWriteReadTurnArounds            0                       # Number of turnarounds from WRITE to READ
system.mem_ctrls.numStayReadState                1212                       # Number of times bus staying in READ state
system.mem_ctrls.numStayWriteState                  0                       # Number of times bus staying in WRITE state
system.mem_ctrls.readReqs                         607                       # Number of read requests accepted
system.mem_ctrls.writeReqs                          0                       # Number of write requests accepted
system.mem_ctrls.readBursts                       607                       # Number of controller read bursts, including those serviced by the write queue
system.mem_ctrls.writeBursts                        0                       # Number of controller write bursts, including those merged in the write queue
system.mem_ctrls.servicedByWrQ                      0                       # Number of controller read bursts serviced by the write queue
system.mem_ctrls.mergedWrBursts                     0                       # Number of controller write bursts merged with an existing one
system.mem_ctrls.neitherReadNorWriteReqs            0                       # Number of requests that are neither read nor write
system.mem_ctrls.avgRdQLen                       1.18                       # Average read queue length when enqueuing
system.mem_ctrls.avgWrQLen                       0.00                       # Average write queue length when enqueuing
system.mem_ctrls.numRdRetry                         0                       # Number of times read queue was full causing retry
system.mem_ctrls.numWrRetry                         0                       # Number of times write queue was full causing retry
system.mem_ctrls.readPktSize::0                     0                       # Read request sizes (log2)
system.mem_ctrls.readPktSize::1                     0                       # Read request sizes (log2)
system.mem_ctrls.readPktSize::2                     0                       # Read request sizes (log2)
system.mem_ctrls.readPktSize::3                     0                       # Read request sizes (log2)
system.mem_ctrls.readPktSize::4                     0                       # Read request sizes (log2)
system.mem_ctrls.readPktSize::5                     0                       # Read request sizes (log2)
system.mem_ctrls.readPktSize::6                   607                       # Read request sizes (log2)
system.mem_ctrls.writePktSize::0                    0                       # Write request sizes (log2)
system.mem_ctrls.writePktSize::1                    0                       # Write request sizes (log2)
system.mem_ctrls.writePktSize::2                    0                       # Write request sizes (log2)
system.mem_ctrls.writePktSize::3                    0                       # Write request sizes (log2)
system.mem_ctrls.writePktSize::4                    0                       # Write request sizes (log2)
system.mem_ctrls.writePktSize::5                    0                       # Write request sizes (log2)
system.mem_ctrls.writePktSize::6                    0                       # Write request sizes (log2)
system.mem_ctrls.rdQLenPdf::0                     508                       # What read queue length does an incoming req see
system.mem_ctrls.rdQLenPdf::1                      90                       # What read queue length does an incoming req see
system.mem_ctrls.rdQLenPdf::2                       9                       # What read queue length does an incoming req see
system.mem_ctrls.rdQLenPdf::3                       0                       # What read queue length does an incoming req see
system.mem_ctrls.rdQLenPdf::4                       0                       # What read queue length does an incoming req see
system.mem_ctrls.rdQLenPdf::5                       0                       # What read queue length does an incoming req see
system.mem_ctrls.rdQLenPdf::6                       0                       # What read queue length does an incoming req see
[...]
system.mem_ctrls.dram.bw_read::.cpu.inst    721346691                       # Total read bandwidth from this memory (bytes/s)
system.mem_ctrls.dram.bw_read::.cpu.data    308906112                       # Total read bandwidth from this memory (bytes/s)
system.mem_ctrls.dram.bw_read::total       1030252803                       # Total read bandwidth from this memory (bytes/s)
system.mem_ctrls.dram.bw_inst_read::.cpu.inst    721346691                       # Instruction read bandwidth from this memory (bytes/s)
system.mem_ctrls.dram.bw_inst_read::total    721346691                       # Instruction read bandwidth from this memory (bytes/s)
system.mem_ctrls.dram.bw_total::.cpu.inst    721346691                       # Total bandwidth to/from this memory (bytes/s)
system.mem_ctrls.dram.bw_total::.cpu.data    308906112                       # Total bandwidth to/from this memory (bytes/s)
system.mem_ctrls.dram.bw_total::total      1030252803                       # Total bandwidth to/from this memory (bytes/s)
system.mem_ctrls.dram.readBursts                  607                       # Number of DRAM read bursts
system.mem_ctrls.dram.writeBursts                   0                       # Number of DRAM write bursts
system.mem_ctrls.dram.perBankRdBursts::0           32                       # Per bank write bursts
system.mem_ctrls.dram.perBankRdBursts::1           66                       # Per bank write bursts
system.mem_ctrls.dram.perBankRdBursts::2            5                       # Per bank write bursts
system.mem_ctrls.dram.perBankRdBursts::3           17                       # Per bank write bursts
system.mem_ctrls.dram.perBankRdBursts::4           35                       # Per bank write bursts
system.mem_ctrls.dram.perBankRdBursts::5           49                       # Per bank write bursts
system.mem_ctrls.dram.perBankRdBursts::6           17                       # Per bank write bursts
system.mem_ctrls.dram.perBankRdBursts::7           17                       # Per bank write bursts
system.mem_ctrls.dram.perBankRdBursts::8           33                       # Per bank write bursts
system.mem_ctrls.dram.perBankRdBursts::9           90                       # Per bank write bursts
system.mem_ctrls.dram.perBankRdBursts::10           58                       # Per bank write bursts
system.mem_ctrls.dram.perBankRdBursts::11           78                       # Per bank write bursts
system.mem_ctrls.dram.perBankRdBursts::12           41                       # Per bank write bursts
system.mem_ctrls.dram.perBankRdBursts::13           26                       # Per bank write bursts
system.mem_ctrls.dram.perBankRdBursts::14            5                       # Per bank write bursts
system.mem_ctrls.dram.perBankRdBursts::15           38                       # Per bank write bursts
system.mem_ctrls.dram.perBankWrBursts::0            0                       # Per bank write bursts
system.mem_ctrls.dram.perBankWrBursts::1            0                       # Per bank write bursts
system.mem_ctrls.dram.perBankWrBursts::2            0                       # Per bank write bursts
system.mem_ctrls.dram.perBankWrBursts::3            0                       # Per bank write bursts
system.mem_ctrls.dram.perBankWrBursts::4            0                       # Per bank write bursts
system.mem_ctrls.dram.perBankWrBursts::5            0                       # Per bank write bursts
system.mem_ctrls.dram.perBankWrBursts::6            0                       # Per bank write bursts
system.mem_ctrls.dram.perBankWrBursts::7            0                       # Per bank write bursts
system.mem_ctrls.dram.perBankWrBursts::8            0                       # Per bank write bursts
system.mem_ctrls.dram.perBankWrBursts::9            0                       # Per bank write bursts
system.mem_ctrls.dram.perBankWrBursts::10            0                       # Per bank write bursts
system.mem_ctrls.dram.perBankWrBursts::11            0                       # Per bank write bursts
system.mem_ctrls.dram.perBankWrBursts::12            0                       # Per bank write bursts
system.mem_ctrls.dram.perBankWrBursts::13            0                       # Per bank write bursts
system.mem_ctrls.dram.perBankWrBursts::14            0                       # Per bank write bursts
system.mem_ctrls.dram.perBankWrBursts::15            0                       # Per bank write bursts
system.mem_ctrls.dram.totQLat                 4369250                       # Total ticks spent queuing
system.mem_ctrls.dram.totBusLat               3035000                       # Total ticks spent in databus transfers
system.mem_ctrls.dram.totMemAccLat           15750500                       # Total ticks spent from burst creation until serviced by the DRAM
system.mem_ctrls.dram.avgQLat                 7198.11                       # Average queueing delay per DRAM burst
system.mem_ctrls.dram.avgBusLat               5000.00                       # Average bus latency per DRAM burst
system.mem_ctrls.dram.avgMemAccLat           25948.11                       # Average memory access latency per DRAM burst
system.mem_ctrls.dram.readRowHits                 480                       # Number of row buffer hits during reads
system.mem_ctrls.dram.writeRowHits                  0                       # Number of row buffer hits during writes
system.mem_ctrls.dram.readRowHitRate            79.08                       # Row buffer hit rate for reads
system.mem_ctrls.dram.writeRowHitRate             nan                       # Row buffer hit rate for writes
system.mem_ctrls.dram.bytesPerActivate::samples          116                       # Bytes accessed per row activation
system.mem_ctrls.dram.bytesPerActivate::mean   311.172414                       # Bytes accessed per row activation
system.mem_ctrls.dram.bytesPerActivate::gmean   209.461659                       # Bytes accessed per row activation
system.mem_ctrls.dram.bytesPerActivate::stdev   286.701186                       # Bytes accessed per row activation
system.mem_ctrls.dram.bytesPerActivate::0-127           29     25.00%     25.00% # Bytes accessed per row activation
system.mem_ctrls.dram.bytesPerActivate::128-255           34     29.31%     54.31% # Bytes accessed per row activation
system.mem_ctrls.dram.bytesPerActivate::256-383           22     18.97%     73.28% # Bytes accessed per row activation
system.mem_ctrls.dram.bytesPerActivate::384-511            7      6.03%     79.31% # Bytes accessed per row activation
system.mem_ctrls.dram.bytesPerActivate::512-639            4      3.45%     82.76% # Bytes accessed per row activation
system.mem_ctrls.dram.bytesPerActivate::640-767            6      5.17%     87.93% # Bytes accessed per row activation
system.mem_ctrls.dram.bytesPerActivate::768-895            4      3.45%     91.38% # Bytes accessed per row activation
system.mem_ctrls.dram.bytesPerActivate::896-1023            2      1.72%     93.10% # Bytes accessed per row activation
system.mem_ctrls.dram.bytesPerActivate::1024-1151            8      6.90%    100.00% # Bytes accessed per row activation
system.mem_ctrls.dram.bytesPerActivate::total          116                       # Bytes accessed per row activation
system.mem_ctrls.dram.bytesRead                 38848                       # Total number of bytes read from DRAM
system.mem_ctrls.dram.bytesWritten                  0                       # Total number of bytes written to DRAM
system.mem_ctrls.dram.avgRdBW             1030.252803                       # Average DRAM read bandwidth in MiBytes/s
system.mem_ctrls.dram.avgWrBW                       0                       # Average DRAM write bandwidth in MiBytes/s
system.mem_ctrls.dram.peakBW                 12800.00                       # Theoretical peak bandwidth in MiByte/s
system.mem_ctrls.dram.busUtil                    8.05                       # Data bus utilization in percentage
system.mem_ctrls.dram.busUtilRead                8.05                       # Data bus utilization in percentage for reads
system.mem_ctrls.dram.busUtilWrite               0.00                       # Data bus utilization in percentage for writes
system.mem_ctrls.dram.pageHitRate               79.08                       # Row buffer hit rate, read and write combined
system.mem_ctrls.dram.power_state.pwrStateResidencyTicks::UNDEFINED     37707250                       # Cumulative time (in ticks) in various power states
system.mem_ctrls.dram.rank0.actEnergy          442680                       # Energy for activate commands per rank (pJ)
system.mem_ctrls.dram.rank0.preEnergy          216315                       # Energy for precharge commands per rank (pJ)
system.mem_ctrls.dram.rank0.readEnergy        1699320                       # Energy for read commands per rank (pJ)
system.mem_ctrls.dram.rank0.writeEnergy             0                       # Energy for write commands per rank (pJ)
system.mem_ctrls.dram.rank0.refreshEnergy 2458560.000000                       # Energy for refresh commands per rank (pJ)
system.mem_ctrls.dram.rank0.actBackEnergy     16817280                       # Energy for active background per rank (pJ)
system.mem_ctrls.dram.rank0.preBackEnergy       317760                       # Energy for precharge background per rank (pJ)
system.mem_ctrls.dram.rank0.actPowerDownEnergy            0                       # Energy for active power-down per rank (pJ)
system.mem_ctrls.dram.rank0.prePowerDownEnergy            0                       # Energy for precharge power-down per rank (pJ)
system.mem_ctrls.dram.rank0.selfRefreshEnergy            0                       # Energy for self refresh per rank (pJ)
system.mem_ctrls.dram.rank0.totalEnergy      21951915                       # Total energy per rank (pJ)
system.mem_ctrls.dram.rank0.averagePower   582.166957                       # Core power per rank (mW)
system.mem_ctrls.dram.rank0.totalIdleTime            0                       # Total Idle time Per DRAM Rank
system.mem_ctrls.dram.rank0.pwrStateTime::IDLE       715250                       # Time in different power states
system.mem_ctrls.dram.rank0.pwrStateTime::REF      1040000                       # Time in different power states
system.mem_ctrls.dram.rank0.pwrStateTime::SREF            0                       # Time in different power states
system.mem_ctrls.dram.rank0.pwrStateTime::PRE_PDN            0                       # Time in different power states
system.mem_ctrls.dram.rank0.pwrStateTime::ACT     35952000                       # Time in different power states
system.mem_ctrls.dram.rank0.pwrStateTime::ACT_PDN            0                       # Time in different power states
system.mem_ctrls.dram.rank1.actEnergy          464100                       # Energy for activate commands per rank (pJ)
system.mem_ctrls.dram.rank1.preEnergy          223905                       # Energy for precharge commands per rank (pJ)
system.mem_ctrls.dram.rank1.readEnergy        2634660                       # Energy for read commands per rank (pJ)
system.mem_ctrls.dram.rank1.writeEnergy             0                       # Energy for write commands per rank (pJ)
system.mem_ctrls.dram.rank1.refreshEnergy 2458560.000000                       # Energy for refresh commands per rank (pJ)
system.mem_ctrls.dram.rank1.actBackEnergy     16983720                       # Energy for active background per rank (pJ)
system.mem_ctrls.dram.rank1.preBackEnergy       177600                       # Energy for precharge background per rank (pJ)
system.mem_ctrls.dram.rank1.actPowerDownEnergy            0                       # Energy for active power-down per rank (pJ)
system.mem_ctrls.dram.rank1.prePowerDownEnergy            0                       # Energy for precharge power-down per rank (pJ)
system.mem_ctrls.dram.rank1.selfRefreshEnergy            0                       # Energy for self refresh per rank (pJ)
system.mem_ctrls.dram.rank1.totalEnergy      22942545                       # Total energy per rank (pJ)
system.mem_ctrls.dram.rank1.averagePower   608.438563                       # Core power per rank (mW)
system.mem_ctrls.dram.rank1.totalIdleTime            0                       # Total Idle time Per DRAM Rank
system.mem_ctrls.dram.rank1.pwrStateTime::IDLE       351500                       # Time in different power states
system.mem_ctrls.dram.rank1.pwrStateTime::REF      1040000                       # Time in different power states
system.mem_ctrls.dram.rank1.pwrStateTime::SREF            0                       # Time in different power states
system.mem_ctrls.dram.rank1.pwrStateTime::PRE_PDN            0                       # Time in different power states
system.mem_ctrls.dram.rank1.pwrStateTime::ACT     36315750                       # Time in different power states
system.mem_ctrls.dram.rank1.pwrStateTime::ACT_PDN            0                       # Time in different power states
system.mem_ctrls.power_state.pwrStateResidencyTicks::UNDEFINED     37707250                       # Cumulative time (in ticks) in various power states
system.membus.trans_dist::ReadResp                533                       # Transaction distribution
system.membus.trans_dist::ReadExReq                74                       # Transaction distribution
system.membus.trans_dist::ReadExResp               74                       # Transaction distribution
system.membus.trans_dist::ReadSharedReq           533                       # Transaction distribution
system.membus.pkt_count_system.l2.mem_side_port::system.mem_ctrls.port         1214                       # Packet count per connected requestor and responder (bytes)
system.membus.pkt_count::total                   1214                       # Packet count per connected requestor and responder (bytes)
system.membus.pkt_size_system.l2.mem_side_port::system.mem_ctrls.port        38848                       # Cumulative packet size per connected requestor and responder (bytes)
system.membus.pkt_size::total                   38848                       # Cumulative packet size per connected requestor and responder (bytes)
system.membus.snoops                                0                       # Total snoops (count)
system.membus.snoopTraffic                          0                       # Total snoop traffic (bytes)
system.membus.snoop_fanout::samples               607                       # Request fanout histogram
system.membus.snoop_fanout::mean                    0                       # Request fanout histogram
system.membus.snoop_fanout::stdev                   0                       # Request fanout histogram
system.membus.snoop_fanout::underflows              0      0.00%      0.00% # Request fanout histogram
system.membus.snoop_fanout::0                     607    100.00%    100.00% # Request fanout histogram
system.membus.snoop_fanout::1                       0      0.00%    100.00% # Request fanout histogram
system.membus.snoop_fanout::overflows               0      0.00%    100.00% # Request fanout histogram
system.membus.snoop_fanout::min_value               0                       # Request fanout histogram
system.membus.snoop_fanout::max_value               0                       # Request fanout histogram
system.membus.snoop_fanout::total                 607                       # Request fanout histogram
system.membus.power_state.pwrStateResidencyTicks::UNDEFINED     37707250                       # Cumulative time (in ticks) in various power states
system.membus.reqLayer0.occupancy              720250                       # Layer occupancy (ticks)
system.membus.reqLayer0.utilization               1.9                       # Layer utilization (%)
system.membus.respLayer1.occupancy            3231250                       # Layer occupancy (ticks)
system.membus.respLayer1.utilization              8.6                       # Layer utilization (%)
system.tol2bus.trans_dist::ReadResp               570                       # Transaction distribution
system.tol2bus.trans_dist::WritebackClean          103                       # Transaction distribution
system.tol2bus.trans_dist::CleanEvict               2                       # Transaction distribution
system.tol2bus.trans_dist::ReadExReq               74                       # Transaction distribution
system.tol2bus.trans_dist::ReadExResp              74                       # Transaction distribution
system.tol2bus.trans_dist::ReadCleanReq           450                       # Transaction distribution
system.tol2bus.trans_dist::ReadSharedReq          120                       # Transaction distribution
system.tol2bus.pkt_count_system.cpu.icache.mem_side_port::system.l2.cpu_side_port         1003                       # Packet count per connected requestor and responder (bytes)
system.tol2bus.pkt_count_system.cpu.dcache.mem_side_port::system.l2.cpu_side_port          390                       # Packet count per connected requestor and responder (bytes)
system.tol2bus.pkt_count::total                  1393                       # Packet count per connected requestor and responder (bytes)
system.tol2bus.pkt_size_system.cpu.icache.mem_side_port::system.l2.cpu_side_port        35392                       # Cumulative packet size per connected requestor and responder (bytes)
system.tol2bus.pkt_size_system.cpu.dcache.mem_side_port::system.l2.cpu_side_port        12416                       # Cumulative packet size per connected requestor and responder (bytes)
system.tol2bus.pkt_size::total                  47808                       # Cumulative packet size per connected requestor and responder (bytes)
system.tol2bus.snoops                               0                       # Total snoops (count)
system.tol2bus.snoopTraffic                         0                       # Total snoop traffic (bytes)
system.tol2bus.snoop_fanout::samples              644                       # Request fanout histogram
system.tol2bus.snoop_fanout::mean            0.031056                       # Request fanout histogram
system.tol2bus.snoop_fanout::stdev           0.173604                       # Request fanout histogram
system.tol2bus.snoop_fanout::underflows             0      0.00%      0.00% # Request fanout histogram
system.tol2bus.snoop_fanout::0                    624     96.89%     96.89% # Request fanout histogram
system.tol2bus.snoop_fanout::1                     20      3.11%    100.00% # Request fanout histogram
system.tol2bus.snoop_fanout::2                      0      0.00%    100.00% # Request fanout histogram
system.tol2bus.snoop_fanout::overflows              0      0.00%    100.00% # Request fanout histogram
system.tol2bus.snoop_fanout::min_value              0                       # Request fanout histogram
system.tol2bus.snoop_fanout::max_value              1                       # Request fanout histogram
system.tol2bus.snoop_fanout::total                644                       # Request fanout histogram
system.tol2bus.power_state.pwrStateResidencyTicks::UNDEFINED     37707250                       # Cumulative time (in ticks) in various power states
system.tol2bus.reqLayer0.occupancy             238750                       # Layer occupancy (ticks)
system.tol2bus.reqLayer0.utilization              0.6                       # Layer utilization (%)
system.tol2bus.respLayer0.occupancy            337749                       # Layer occupancy (ticks)
system.tol2bus.respLayer0.utilization             0.9                       # Layer utilization (%)
system.tol2bus.respLayer1.occupancy            146745                       # Layer occupancy (ticks)
system.tol2bus.respLayer1.utilization             0.4                       # Layer utilization (%)
system.voltage_domain.voltage                       1                       # Voltage in Volts

---------- End Simulation Statistics   ----------
