
---------- Begin Simulation Statistics ----------
final_tick                               513825713500                       # Number of ticks from beginning of simulation (restored from checkpoints and never reset)
host_inst_rate                                 232117                       # Simulator instruction rate (inst/s)
host_mem_usage                                 668180                       # Number of bytes of host memory used
host_op_rate                                   427603                       # Simulator op (including micro ops) rate (op/s)
host_seconds                                   430.82                       # Real time elapsed on the host
host_tick_rate                             1192677019                       # Simulator tick rate (ticks/s)
sim_freq                                 1000000000000                       # Frequency of simulated ticks
sim_insts                                   100000000                       # Number of instructions simulated
sim_ops                                     184218810                       # Number of ops (including micro ops) simulated
sim_seconds                                  0.513826                       # Number of seconds simulated
sim_ticks                                513825713500                       # Number of ticks simulated
system.cpu.committedInsts                   100000000                       # Number of instructions committed
system.cpu.committedOps                     184218810                       # Number of ops (including micro ops) committed
system.cpu.cpi                              10.276514                       # CPI: cycles per instruction
system.cpu.discardedOps                          4408                       # Number of ops (including micro ops) which were discarded before commit
system.cpu.idleCycles                       805964791                       # Total number of cycles that the object has spent stopped
system.cpu.ipc                               0.097309                       # IPC: instructions per cycle
system.cpu.numCycles                       1027651427                       # number of cpu cycles simulated
system.cpu.numFetchSuspends                         0                       # Number of times Execute suspended instruction fetching
system.cpu.numWorkItemsCompleted                    0                       # number of work items this cpu completed
system.cpu.numWorkItemsStarted                      0                       # number of work items this cpu started
system.cpu.op_class_0::No_OpClass                   0      0.00%      0.00% # Class of committed instruction
system.cpu.op_class_0::IntAlu                97640467     53.00%     53.00% # Class of committed instruction
system.cpu.op_class_0::IntMult                 114702      0.06%     53.06% # Class of committed instruction
system.cpu.op_class_0::IntDiv                       0      0.00%     53.06% # Class of committed instruction
system.cpu.op_class_0::FloatAdd                     0      0.00%     53.06% # Class of committed instruction
system.cpu.op_class_0::FloatCmp                     0      0.00%     53.06% # Class of committed instruction
system.cpu.op_class_0::FloatCvt                     0      0.00%     53.06% # Class of committed instruction
system.cpu.op_class_0::FloatMult                    0      0.00%     53.06% # Class of committed instruction
system.cpu.op_class_0::FloatMultAcc                 0      0.00%     53.06% # Class of committed instruction
system.cpu.op_class_0::FloatDiv                     0      0.00%     53.06% # Class of committed instruction
system.cpu.op_class_0::FloatMisc                    0      0.00%     53.06% # Class of committed instruction
system.cpu.op_class_0::FloatSqrt                    0      0.00%     53.06% # Class of committed instruction
system.cpu.op_class_0::SimdAdd                      8      0.00%     53.06% # Class of committed instruction
system.cpu.op_class_0::SimdAddAcc                   0      0.00%     53.06% # Class of committed instruction
system.cpu.op_class_0::SimdAlu                     10      0.00%     53.06% # Class of committed instruction
system.cpu.op_class_0::SimdCmp                      8      0.00%     53.06% # Class of committed instruction
system.cpu.op_class_0::SimdCvt                      0      0.00%     53.06% # Class of committed instruction
system.cpu.op_class_0::SimdMisc                     1      0.00%     53.06% # Class of committed instruction
system.cpu.op_class_0::SimdMult                     0      0.00%     53.06% # Class of committed instruction
system.cpu.op_class_0::SimdMultAcc                  0      0.00%     53.06% # Class of committed instruction
system.cpu.op_class_0::SimdShift                    0      0.00%     53.06% # Class of committed instruction
system.cpu.op_class_0::SimdShiftAcc                 0      0.00%     53.06% # Class of committed instruction
system.cpu.op_class_0::SimdDiv                      0      0.00%     53.06% # Class of committed instruction
system.cpu.op_class_0::SimdSqrt                     0      0.00%     53.06% # Class of committed instruction
system.cpu.op_class_0::SimdFloatAdd                 0      0.00%     53.06% # Class of committed instruction
system.cpu.op_class_0::SimdFloatAlu                 0      0.00%     53.06% # Class of committed instruction
system.cpu.op_class_0::SimdFloatCmp                 0      0.00%     53.06% # Class of committed instruction
system.cpu.op_class_0::SimdFloatCvt                 0      0.00%     53.06% # Class of committed instruction
system.cpu.op_class_0::SimdFloatDiv                 0      0.00%     53.06% # Class of committed instruction
system.cpu.op_class_0::SimdFloatMisc               24      0.00%     53.06% # Class of committed instruction
system.cpu.op_class_0::SimdFloatMult                0      0.00%     53.06% # Class of committed instruction
system.cpu.op_class_0::SimdFloatMultAcc             0      0.00%     53.06% # Class of committed instruction
system.cpu.op_class_0::SimdFloatSqrt                0      0.00%     53.06% # Class of committed instruction
system.cpu.op_class_0::SimdReduceAdd                0      0.00%     53.06% # Class of committed instruction
system.cpu.op_class_0::SimdReduceAlu                0      0.00%     53.06% # Class of committed instruction
system.cpu.op_class_0::SimdReduceCmp                0      0.00%     53.06% # Class of committed instruction
system.cpu.op_class_0::SimdFloatReduceAdd            0      0.00%     53.06% # Class of committed instruction
system.cpu.op_class_0::SimdFloatReduceCmp            0      0.00%     53.06% # Class of committed instruction
system.cpu.op_class_0::SimdAes                      0      0.00%     53.06% # Class of committed instruction
system.cpu.op_class_0::SimdAesMix                   0      0.00%     53.06% # Class of committed instruction
system.cpu.op_class_0::SimdSha1Hash                 0      0.00%     53.06% # Class of committed instruction
system.cpu.op_class_0::SimdSha1Hash2                0      0.00%     53.06% # Class of committed instruction
system.cpu.op_class_0::SimdSha256Hash               0      0.00%     53.06% # Class of committed instruction
system.cpu.op_class_0::SimdSha256Hash2              0      0.00%     53.06% # Class of committed instruction
system.cpu.op_class_0::SimdShaSigma2                0      0.00%     53.06% # Class of committed instruction
system.cpu.op_class_0::SimdShaSigma3                0      0.00%     53.06% # Class of committed instruction
system.cpu.op_class_0::SimdPredAlu                  0      0.00%     53.06% # Class of committed instruction
system.cpu.op_class_0::MemRead                2082677      1.13%     54.20% # Class of committed instruction
system.cpu.op_class_0::MemWrite              84380913     45.80%    100.00% # Class of committed instruction
system.cpu.op_class_0::FloatMemRead                 0      0.00%    100.00% # Class of committed instruction
system.cpu.op_class_0::FloatMemWrite                0      0.00%    100.00% # Class of committed instruction
system.cpu.op_class_0::IprAccess                    0      0.00%    100.00% # Class of committed instruction
system.cpu.op_class_0::InstPrefetch                 0      0.00%    100.00% # Class of committed instruction
system.cpu.op_class_0::total                184218810                       # Class of committed instruction
system.cpu.tickCycles                       221686636                       # Number of cycles that the object actually ticked
system.cpu.workload.numSyscalls                    19                       # Number of system calls
system.membus.snoop_filter.hit_multi_requests            0                       # Number of requests hitting in the snoop filter with multiple (>1) holders of the requested data.
system.membus.snoop_filter.hit_multi_snoops            0                       # Number of snoops hitting in the snoop filter with multiple (>1) holders of the requested data.
system.membus.snoop_filter.hit_single_requests      5230685                       # Number of requests hitting in the snoop filter with a single holder of the requested data.
system.membus.snoop_filter.hit_single_snoops            0                       # Number of snoops hitting in the snoop filter with a single holder of the requested data.
system.membus.snoop_filter.tot_requests      10494565                       # Total number of requests made to the snoop filter.
system.membus.snoop_filter.tot_snoops               0                       # Total number of snoops made to the snoop filter.
system.tol2bus.snoop_filter.hit_multi_requests           57                       # Number of requests hitting in the snoop filter with multiple (>1) holders of the requested data.
system.tol2bus.snoop_filter.hit_multi_snoops            0                       # Number of snoops hitting in the snoop filter with multiple (>1) holders of the requested data.
system.tol2bus.snoop_filter.hit_single_requests      5263729                       # Number of requests hitting in the snoop filter with a single holder of the requested data.
system.tol2bus.snoop_filter.hit_single_snoops          533                       # Number of snoops hitting in the snoop filter with a single holder of the requested data.
system.tol2bus.snoop_filter.tot_requests     10528153                       # Total number of requests made to the snoop filter.
system.tol2bus.snoop_filter.tot_snoops            533                       # Total number of snoops made to the snoop filter.
system.clk_domain.clock                          1000                       # Clock period in ticks
system.cpu.branchPred.lookups                10658235                       # Number of BP lookups
system.cpu.branchPred.condPredicted          10650005                       # Number of conditional branches predicted
system.cpu.branchPred.condIncorrect              1452                       # Number of conditional branches incorrect
system.cpu.branchPred.BTBLookups             10650208                       # Number of BTB lookups
system.cpu.branchPred.BTBHits                10648851                       # Number of BTB hits
system.cpu.branchPred.BTBHitPct             99.987258                       # BTB Hit Percentage
system.cpu.branchPred.RASUsed                    2713                       # Number of times the RAS was used to get a target.
system.cpu.branchPred.RASIncorrect                  1                       # Number of incorrect RAS predictions.
system.cpu.branchPred.indirectLookups             195                       # Number of indirect predictor lookups.
system.cpu.branchPred.indirectHits                 19                       # Number of indirect target hits.
system.cpu.branchPred.indirectMisses              176                       # Number of indirect misses.
system.cpu.branchPred.indirectMispredicted          105                       # Number of mispredicted indirect branches.
system.cpu.dcache.demand_hits::.cpu.data     75856510                       # number of demand (read+write) hits
system.cpu.dcache.demand_hits::total         75856510                       # number of demand (read+write) hits
system.cpu.dcache.overall_hits::.cpu.data     75856544                       # number of overall hits
system.cpu.dcache.overall_hits::total        75856544                       # number of overall hits
system.cpu.dcache.demand_misses::.cpu.data     10524227                       # number of demand (read+write) misses
system.cpu.dcache.demand_misses::total       10524227                       # number of demand (read+write) misses
system.cpu.dcache.overall_misses::.cpu.data     10524264                       # number of overall misses
system.cpu.dcache.overall_misses::total      10524264                       # number of overall misses
system.cpu.dcache.demand_miss_latency::.cpu.data 876754759999                       # number of demand (read+write) miss cycles
system.cpu.dcache.demand_miss_latency::total 876754759999                       # number of demand (read+write) miss cycles
system.cpu.dcache.overall_miss_latency::.cpu.data 876754759999                       # number of overall miss cycles
system.cpu.dcache.overall_miss_latency::total 876754759999                       # number of overall miss cycles
system.cpu.dcache.demand_accesses::.cpu.data     86380737                       # number of demand (read+write) accesses
system.cpu.dcache.demand_accesses::total     86380737                       # number of demand (read+write) accesses
system.cpu.dcache.overall_accesses::.cpu.data     86380808                       # number of overall (read+write) accesses
system.cpu.dcache.overall_accesses::total     86380808                       # number of overall (read+write) accesses
system.cpu.dcache.demand_miss_rate::.cpu.data     0.121835                       # miss rate for demand accesses
system.cpu.dcache.demand_miss_rate::total     0.121835                       # miss rate for demand accesses
system.cpu.dcache.overall_miss_rate::.cpu.data     0.121836                       # miss rate for overall accesses
system.cpu.dcache.overall_miss_rate::total     0.121836                       # miss rate for overall accesses
system.cpu.dcache.demand_avg_miss_latency::.cpu.data 83308.233469                       # average overall miss latency
system.cpu.dcache.demand_avg_miss_latency::total 83308.233469                       # average overall miss latency
system.cpu.dcache.overall_avg_miss_latency::.cpu.data 83307.940584                       # average overall miss latency
system.cpu.dcache.overall_avg_miss_latency::total 83307.940584                       # average overall miss latency
system.cpu.dcache.blocked_cycles::no_mshrs          289                       # number of cycles access was blocked
system.cpu.dcache.blocked_cycles::no_targets            0                       # number of cycles access was blocked
system.cpu.dcache.blocked::no_mshrs                 5                       # number of cycles access was blocked
system.cpu.dcache.blocked::no_targets               0                       # number of cycles access was blocked
system.cpu.dcache.avg_blocked_cycles::no_mshrs    57.800000                       # average number of cycles each access was blocked
system.cpu.dcache.avg_blocked_cycles::no_targets          nan                       # average number of cycles each access was blocked
system.cpu.dcache.writebacks::.writebacks      5263159                       # number of writebacks
system.cpu.dcache.writebacks::total           5263159                       # number of writebacks
system.cpu.dcache.demand_mshr_hits::.cpu.data      5260475                       # number of demand (read+write) MSHR hits
system.cpu.dcache.demand_mshr_hits::total      5260475                       # number of demand (read+write) MSHR hits
system.cpu.dcache.overall_mshr_hits::.cpu.data      5260475                       # number of overall MSHR hits
system.cpu.dcache.overall_mshr_hits::total      5260475                       # number of overall MSHR hits
system.cpu.dcache.demand_mshr_misses::.cpu.data      5263752                       # number of demand (read+write) MSHR misses
system.cpu.dcache.demand_mshr_misses::total      5263752                       # number of demand (read+write) MSHR misses
system.cpu.dcache.overall_mshr_misses::.cpu.data      5263784                       # number of overall MSHR misses
system.cpu.dcache.overall_mshr_misses::total      5263784                       # number of overall MSHR misses
system.cpu.dcache.demand_mshr_miss_latency::.cpu.data 431928249000                       # number of demand (read+write) MSHR miss cycles
system.cpu.dcache.demand_mshr_miss_latency::total 431928249000                       # number of demand (read+write) MSHR miss cycles
system.cpu.dcache.overall_mshr_miss_latency::.cpu.data 431930681000                       # number of overall MSHR miss cycles
system.cpu.dcache.overall_mshr_miss_latency::total 431930681000                       # number of overall MSHR miss cycles
system.cpu.dcache.demand_mshr_miss_rate::.cpu.data     0.060937                       # mshr miss rate for demand accesses
system.cpu.dcache.demand_mshr_miss_rate::total     0.060937                       # mshr miss rate for demand accesses
system.cpu.dcache.overall_mshr_miss_rate::.cpu.data     0.060937                       # mshr miss rate for overall accesses
system.cpu.dcache.overall_mshr_miss_rate::total     0.060937                       # mshr miss rate for overall accesses
system.cpu.dcache.demand_avg_mshr_miss_latency::.cpu.data 82057.104704                       # average overall mshr miss latency
system.cpu.dcache.demand_avg_mshr_miss_latency::total 82057.104704                       # average overall mshr miss latency
system.cpu.dcache.overall_avg_mshr_miss_latency::.cpu.data 82057.067881                       # average overall mshr miss latency
system.cpu.dcache.overall_avg_mshr_miss_latency::total 82057.067881                       # average overall mshr miss latency
system.cpu.dcache.replacements                5263527                       # number of replacements
system.cpu.dcache.ReadReq_hits::.cpu.data      2043555                       # number of ReadReq hits
system.cpu.dcache.ReadReq_hits::total         2043555                       # number of ReadReq hits
system.cpu.dcache.ReadReq_misses::.cpu.data          564                       # number of ReadReq misses
system.cpu.dcache.ReadReq_misses::total           564                       # number of ReadReq misses
system.cpu.dcache.ReadReq_miss_latency::.cpu.data     29103500                       # number of ReadReq miss cycles
system.cpu.dcache.ReadReq_miss_latency::total     29103500                       # number of ReadReq miss cycles
system.cpu.dcache.ReadReq_accesses::.cpu.data      2044119                       # number of ReadReq accesses(hits+misses)
system.cpu.dcache.ReadReq_accesses::total      2044119                       # number of ReadReq accesses(hits+misses)
system.cpu.dcache.ReadReq_miss_rate::.cpu.data     0.000276                       # miss rate for ReadReq accesses
system.cpu.dcache.ReadReq_miss_rate::total     0.000276                       # miss rate for ReadReq accesses
system.cpu.dcache.ReadReq_avg_miss_latency::.cpu.data 51601.950355                       # average ReadReq miss latency
system.cpu.dcache.ReadReq_avg_miss_latency::total 51601.950355                       # average ReadReq miss latency
system.cpu.dcache.ReadReq_mshr_hits::.cpu.data           22                       # number of ReadReq MSHR hits
system.cpu.dcache.ReadReq_mshr_hits::total           22                       # number of ReadReq MSHR hits
system.cpu.dcache.ReadReq_mshr_misses::.cpu.data          542                       # number of ReadReq MSHR misses
system.cpu.dcache.ReadReq_mshr_misses::total          542                       # number of ReadReq MSHR misses
system.cpu.dcache.ReadReq_mshr_miss_latency::.cpu.data     26808500                       # number of ReadReq MSHR miss cycles
system.cpu.dcache.ReadReq_mshr_miss_latency::total     26808500                       # number of ReadReq MSHR miss cycles
system.cpu.dcache.ReadReq_mshr_miss_rate::.cpu.data     0.000265                       # mshr miss rate for ReadReq accesses
system.cpu.dcache.ReadReq_mshr_miss_rate::total     0.000265                       # mshr miss rate for ReadReq accesses
system.cpu.dcache.ReadReq_avg_mshr_miss_latency::.cpu.data 49462.177122                       # average ReadReq mshr miss latency
system.cpu.dcache.ReadReq_avg_mshr_miss_latency::total 49462.177122                       # average ReadReq mshr miss latency
system.cpu.dcache.WriteReq_hits::.cpu.data     73812955                       # number of WriteReq hits
system.cpu.dcache.WriteReq_hits::total       73812955                       # number of WriteReq hits
system.cpu.dcache.WriteReq_misses::.cpu.data     10523663                       # number of WriteReq misses
system.cpu.dcache.WriteReq_misses::total     10523663                       # number of WriteReq misses
system.cpu.dcache.WriteReq_miss_latency::.cpu.data 876725656499                       # number of WriteReq miss cycles
system.cpu.dcache.WriteReq_miss_latency::total 876725656499                       # number of WriteReq miss cycles
system.cpu.dcache.WriteReq_accesses::.cpu.data     84336618                       # number of WriteReq accesses(hits+misses)
system.cpu.dcache.WriteReq_accesses::total     84336618                       # number of WriteReq accesses(hits+misses)
system.cpu.dcache.WriteReq_miss_rate::.cpu.data     0.124782                       # miss rate for WriteReq accesses
system.cpu.dcache.WriteReq_miss_rate::total     0.124782                       # miss rate for WriteReq accesses
system.cpu.dcache.WriteReq_avg_miss_latency::.cpu.data 83309.932720                       # average WriteReq miss latency
system.cpu.dcache.WriteReq_avg_miss_latency::total 83309.932720                       # average WriteReq miss latency
system.cpu.dcache.WriteReq_mshr_hits::.cpu.data      5260453                       # number of WriteReq MSHR hits
system.cpu.dcache.WriteReq_mshr_hits::total      5260453                       # number of WriteReq MSHR hits
system.cpu.dcache.WriteReq_mshr_misses::.cpu.data      5263210                       # number of WriteReq MSHR misses
system.cpu.dcache.WriteReq_mshr_misses::total      5263210                       # number of WriteReq MSHR misses
system.cpu.dcache.WriteReq_mshr_miss_latency::.cpu.data 431901440500                       # number of WriteReq MSHR miss cycles
system.cpu.dcache.WriteReq_mshr_miss_latency::total 431901440500                       # number of WriteReq MSHR miss cycles
system.cpu.dcache.WriteReq_mshr_miss_rate::.cpu.data     0.062407                       # mshr miss rate for WriteReq accesses
system.cpu.dcache.WriteReq_mshr_miss_rate::total     0.062407                       # mshr miss rate for WriteReq accesses
system.cpu.dcache.WriteReq_avg_mshr_miss_latency::.cpu.data 82060.461296                       # average WriteReq mshr miss latency
system.cpu.dcache.WriteReq_avg_mshr_miss_latency::total 82060.461296                       # average WriteReq mshr miss latency
system.cpu.dcache.SoftPFReq_hits::.cpu.data           34                       # number of SoftPFReq hits
system.cpu.dcache.SoftPFReq_hits::total            34                       # number of SoftPFReq hits
system.cpu.dcache.SoftPFReq_misses::.cpu.data           37                       # number of SoftPFReq misses
system.cpu.dcache.SoftPFReq_misses::total           37                       # number of SoftPFReq misses
system.cpu.dcache.SoftPFReq_accesses::.cpu.data           71                       # number of SoftPFReq accesses(hits+misses)
system.cpu.dcache.SoftPFReq_accesses::total           71                       # number of SoftPFReq accesses(hits+misses)
system.cpu.dcache.SoftPFReq_miss_rate::.cpu.data     0.521127                       # miss rate for SoftPFReq accesses
system.cpu.dcache.SoftPFReq_miss_rate::total     0.521127                       # miss rate for SoftPFReq accesses
system.cpu.dcache.SoftPFReq_mshr_misses::.cpu.data           32                       # number of SoftPFReq MSHR misses
system.cpu.dcache.SoftPFReq_mshr_misses::total           32                       # number of SoftPFReq MSHR misses
system.cpu.dcache.SoftPFReq_mshr_miss_latency::.cpu.data      2432000                       # number of SoftPFReq MSHR miss cycles
system.cpu.dcache.SoftPFReq_mshr_miss_latency::total      2432000                       # number of SoftPFReq MSHR miss cycles
system.cpu.dcache.SoftPFReq_mshr_miss_rate::.cpu.data     0.450704                       # mshr miss rate for SoftPFReq accesses
system.cpu.dcache.SoftPFReq_mshr_miss_rate::total     0.450704                       # mshr miss rate for SoftPFReq accesses
system.cpu.dcache.SoftPFReq_avg_mshr_miss_latency::.cpu.data        76000                       # average SoftPFReq mshr miss latency
system.cpu.dcache.SoftPFReq_avg_mshr_miss_latency::total        76000                       # average SoftPFReq mshr miss latency
system.cpu.dcache.LoadLockedReq_hits::.cpu.data           34                       # number of LoadLockedReq hits
system.cpu.dcache.LoadLockedReq_hits::total           34                       # number of LoadLockedReq hits
system.cpu.dcache.LoadLockedReq_accesses::.cpu.data           34                       # number of LoadLockedReq accesses(hits+misses)
system.cpu.dcache.LoadLockedReq_accesses::total           34                       # number of LoadLockedReq accesses(hits+misses)
system.cpu.dcache.StoreCondReq_hits::.cpu.data           34                       # number of StoreCondReq hits
system.cpu.dcache.StoreCondReq_hits::total           34                       # number of StoreCondReq hits
system.cpu.dcache.StoreCondReq_accesses::.cpu.data           34                       # number of StoreCondReq accesses(hits+misses)
system.cpu.dcache.StoreCondReq_accesses::total           34                       # number of StoreCondReq accesses(hits+misses)
system.cpu.dcache.power_state.pwrStateResidencyTicks::UNDEFINED 513825713500                       # Cumulative time (in ticks) in various power states
system.cpu.dcache.tags.tagsinuse           255.980869                       # Cycle average of tags in use
system.cpu.dcache.tags.total_refs            81120395                       # Total number of references to valid blocks.
system.cpu.dcache.tags.sampled_refs           5263783                       # Sample count of references to valid blocks.
system.cpu.dcache.tags.avg_refs             15.411045                       # Average number of references to valid blocks.
system.cpu.dcache.tags.warmup_cycle            176500                       # Cycle when the warmup percentage was hit.
system.cpu.dcache.tags.occ_blocks::.cpu.data   255.980869                       # Average occupied blocks per requestor
system.cpu.dcache.tags.occ_percent::.cpu.data     0.999925                       # Average percentage of cache occupancy
system.cpu.dcache.tags.occ_percent::total     0.999925                       # Average percentage of cache occupancy
system.cpu.dcache.tags.occ_task_id_blocks::1024          256                       # Occupied blocks per task id
system.cpu.dcache.tags.age_task_id_blocks_1024::0          103                       # Occupied blocks per task id
system.cpu.dcache.tags.age_task_id_blocks_1024::1          153                       # Occupied blocks per task id
system.cpu.dcache.tags.occ_task_id_percent::1024            1                       # Percentage of cache occupancy per task id
system.cpu.dcache.tags.tag_accesses         178025535                       # Number of tag accesses
system.cpu.dcache.tags.data_accesses        178025535                       # Number of data accesses
system.cpu.dcache.tags.power_state.pwrStateResidencyTicks::UNDEFINED 513825713500                       # Cumulative time (in ticks) in various power states
system.cpu.dtb.instHits                             0                       # ITB inst hits
system.cpu.dtb.instMisses                           0                       # ITB inst misses
system.cpu.dtb.readHits                             0                       # DTB read hits
system.cpu.dtb.readMisses                           0                       # DTB read misses
system.cpu.dtb.writeHits                            0                       # DTB write hits
system.cpu.dtb.writeMisses                          0                       # DTB write misses
system.cpu.dtb.inserts                              0                       # Number of times an entry is inserted into the TLB
system.cpu.dtb.flushTlb                             0                       # Number of times complete TLB was flushed
system.cpu.dtb.flushTlbMva                          0                       # Number of times TLB was flushed by MVA
system.cpu.dtb.flushTlbMvaAsid                      0                       # Number of times TLB was flushed by MVA & ASID
system.cpu.dtb.flushTlbAsid                         0                       # Number of times TLB was flushed by ASID
system.cpu.dtb.flushedEntries                       0                       # Number of entries that have been flushed from TLB
system.cpu.dtb.alignFaults                          0                       # Number of TLB faults due to alignment restrictions
system.cpu.dtb.prefetchFaults                       0                       # Number of TLB faults due to prefetch
system.cpu.dtb.domainFaults                         0                       # Number of TLB faults due to domain restrictions
system.cpu.dtb.permsFaults                          0                       # Number of TLB faults due to permissions restrictions
system.cpu.dtb.readAccesses                         0                       # DTB read accesses
system.cpu.dtb.writeAccesses                        0                       # DTB write accesses
system.cpu.dtb.instAccesses                         0                       # ITB inst accesses
system.cpu.dtb.hits                                 0                       # Total TLB (inst and data) hits
system.cpu.dtb.misses                               0                       # Total TLB (inst and data) misses
system.cpu.dtb.accesses                             0                       # Total TLB (inst and data) accesses
system.cpu.dtb.stage2_mmu.stage2_tlb.instHits            0                       # ITB inst hits
system.cpu.dtb.stage2_mmu.stage2_tlb.instMisses            0                       # ITB inst misses
system.cpu.dtb.stage2_mmu.stage2_tlb.readHits            0                       # DTB read hits
system.cpu.dtb.stage2_mmu.stage2_tlb.readMisses            0                       # DTB read misses
system.cpu.dtb.stage2_mmu.stage2_tlb.writeHits            0                       # DTB write hits
system.cpu.dtb.stage2_mmu.stage2_tlb.writeMisses            0                       # DTB write misses
system.cpu.dtb.stage2_mmu.stage2_tlb.inserts            0                       # Number of times an entry is inserted into the TLB
system.cpu.dtb.stage2_mmu.stage2_tlb.flushTlb            0                       # Number of times complete TLB was flushed
system.cpu.dtb.stage2_mmu.stage2_tlb.flushTlbMva            0                       # Number of times TLB was flushed by MVA
system.cpu.dtb.stage2_mmu.stage2_tlb.flushTlbMvaAsid            0                       # Number of times TLB was flushed by MVA & ASID
system.cpu.dtb.stage2_mmu.stage2_tlb.flushTlbAsid            0                       # Number of times TLB was flushed by ASID
system.cpu.dtb.stage2_mmu.stage2_tlb.flushedEntries            0                       # Number of entries that have been flushed from TLB
system.cpu.dtb.stage2_mmu.stage2_tlb.alignFaults            0                       # Number of TLB faults due to alignment restrictions
system.cpu.dtb.stage2_mmu.stage2_tlb.prefetchFaults            0                       # Number of TLB faults due to prefetch
system.cpu.dtb.stage2_mmu.stage2_tlb.domainFaults            0                       # Number of TLB faults due to domain restrictions
system.cpu.dtb.stage2_mmu.stage2_tlb.permsFaults            0                       # Number of TLB faults due to permissions restrictions
system.cpu.dtb.stage2_mmu.stage2_tlb.readAccesses            0                       # DTB read accesses
system.cpu.dtb.stage2_mmu.stage2_tlb.writeAccesses            0                       # DTB write accesses
system.cpu.dtb.stage2_mmu.stage2_tlb.instAccesses            0                       # ITB inst accesses
system.cpu.dtb.stage2_mmu.stage2_tlb.hits            0                       # Total TLB (inst and data) hits
system.cpu.dtb.stage2_mmu.stage2_tlb.misses            0                       # Total TLB (inst and data) misses
system.cpu.dtb.stage2_mmu.stage2_tlb.accesses            0                       # Total TLB (inst and data) accesses
system.cpu.dtb.stage2_mmu.stage2_tlb.walker.walks            0                       # Table walker walks requested
system.cpu.dtb.stage2_mmu.stage2_tlb.walker.requestOrigin_Requested::Data            0                       # Table walker requests started/completed, data/inst
system.cpu.dtb.stage2_mmu.stage2_tlb.walker.requestOrigin_Requested::Inst            0                       # Table walker requests started/completed, data/inst
system.cpu.dtb.stage2_mmu.stage2_tlb.walker.requestOrigin_Requested::total            0                       # Table walker requests started/completed, data/inst
system.cpu.dtb.stage2_mmu.stage2_tlb.walker.requestOrigin_Completed::Data            0                       # Table walker requests started/completed, data/inst
system.cpu.dtb.stage2_mmu.stage2_tlb.walker.requestOrigin_Completed::Inst            0                       # Table walker requests started/completed, data/inst
system.cpu.dtb.stage2_mmu.stage2_tlb.walker.requestOrigin_Completed::total            0                       # Table walker requests started/completed, data/inst
system.cpu.dtb.stage2_mmu.stage2_tlb.walker.requestOrigin::total            0                       # Table walker requests started/completed, data/inst
system.cpu.dtb.stage2_mmu.stage2_tlb.walker.power_state.pwrStateResidencyTicks::UNDEFINED 513825713500                       # Cumulative time (in ticks) in various power states
system.cpu.dtb.walker.walks                         0                       # Table walker walks requested
system.cpu.dtb.walker.requestOrigin_Requested::Data            0                       # Table walker requests started/completed, data/inst
system.cpu.dtb.walker.requestOrigin_Requested::Inst            0                       # Table walker requests started/completed, data/inst
system.cpu.dtb.walker.requestOrigin_Requested::total            0                       # Table walker requests started/completed, data/inst
system.cpu.dtb.walker.requestOrigin_Completed::Data            0                       # Table walker requests started/completed, data/inst
system.cpu.dtb.walker.requestOrigin_Completed::Inst            0                       # Table walker requests started/completed, data/inst
system.cpu.dtb.walker.requestOrigin_Completed::total            0                       # Table walker requests started/completed, data/inst
system.cpu.dtb.walker.requestOrigin::total            0                       # Table walker requests started/completed, data/inst
system.cpu.dtb.walker.power_state.pwrStateResidencyTicks::UNDEFINED 513825713500                       # Cumulative time (in ticks) in various power states
system.cpu.fetch2.intInstructions            45070991                       # Number of integer instructions successfully decoded
system.cpu.fetch2.fpInstructions                    0                       # Number of floating point instructions successfully decoded
system.cpu.fetch2.vecInstructions                   0                       # Number of SIMD instructions successfully decoded
system.cpu.fetch2.loadInstructions            2086392                       # Number of memory load instructions successfully decoded
system.cpu.fetch2.storeInstructions            169111                       # Number of memory store instructions successfully decoded
system.cpu.fetch2.amoInstructions                   0                       # Number of memory atomic instructions successfully decoded
system.cpu.icache.demand_hits::.cpu.inst     32144797                       # number of demand (read+write) hits
system.cpu.icache.demand_hits::total         32144797                       # number of demand (read+write) hits
system.cpu.icache.overall_hits::.cpu.inst     32144797                       # number of overall hits
system.cpu.icache.overall_hits::total        32144797                       # number of overall hits
system.cpu.icache.demand_misses::.cpu.inst          640                       # number of demand (read+write) misses
system.cpu.icache.demand_misses::total            640                       # number of demand (read+write) misses
system.cpu.icache.overall_misses::.cpu.inst          640                       # number of overall misses
system.cpu.icache.overall_misses::total           640                       # number of overall misses
system.cpu.icache.demand_miss_latency::.cpu.inst     49124500                       # number of demand (read+write) miss cycles
system.cpu.icache.demand_miss_latency::total     49124500                       # number of demand (read+write) miss cycles
system.cpu.icache.overall_miss_latency::.cpu.inst     49124500                       # number of overall miss cycles
system.cpu.icache.overall_miss_latency::total     49124500                       # number of overall miss cycles
system.cpu.icache.demand_accesses::.cpu.inst     32145437                       # number of demand (read+write) accesses
system.cpu.icache.demand_accesses::total     32145437                       # number of demand (read+write) accesses
system.cpu.icache.overall_accesses::.cpu.inst     32145437                       # number of overall (read+write) accesses
system.cpu.icache.overall_accesses::total     32145437                       # number of overall (read+write) accesses
system.cpu.icache.demand_miss_rate::.cpu.inst     0.000020                       # miss rate for demand accesses
system.cpu.icache.demand_miss_rate::total     0.000020                       # miss rate for demand accesses
system.cpu.icache.overall_miss_rate::.cpu.inst     0.000020                       # miss rate for overall accesses
system.cpu.icache.overall_miss_rate::total     0.000020                       # miss rate for overall accesses
system.cpu.icache.demand_avg_miss_latency::.cpu.inst 76757.031250                       # average overall miss latency
system.cpu.icache.demand_avg_miss_latency::total 76757.031250                       # average overall miss latency
system.cpu.icache.overall_avg_miss_latency::.cpu.inst 76757.031250                       # average overall miss latency
system.cpu.icache.overall_avg_miss_latency::total 76757.031250                       # average overall miss latency
system.cpu.icache.blocked_cycles::no_mshrs            0                       # number of cycles access was blocked
system.cpu.icache.blocked_cycles::no_targets            0                       # number of cycles access was blocked
system.cpu.icache.blocked::no_mshrs                 0                       # number of cycles access was blocked
system.cpu.icache.blocked::no_targets               0                       # number of cycles access was blocked
system.cpu.icache.avg_blocked_cycles::no_mshrs          nan                       # average number of cycles each access was blocked
system.cpu.icache.avg_blocked_cycles::no_targets          nan                       # average number of cycles each access was blocked
system.cpu.icache.writebacks::.writebacks          202                       # number of writebacks
system.cpu.icache.writebacks::total               202                       # number of writebacks
system.cpu.icache.demand_mshr_misses::.cpu.inst          640                       # number of demand (read+write) MSHR misses
system.cpu.icache.demand_mshr_misses::total          640                       # number of demand (read+write) MSHR misses
system.cpu.icache.overall_mshr_misses::.cpu.inst          640                       # number of overall MSHR misses
system.cpu.icache.overall_mshr_misses::total          640                       # number of overall MSHR misses
system.cpu.icache.demand_mshr_miss_latency::.cpu.inst     48484500                       # number of demand (read+write) MSHR miss cycles
system.cpu.icache.demand_mshr_miss_latency::total     48484500                       # number of demand (read+write) MSHR miss cycles
system.cpu.icache.overall_mshr_miss_latency::.cpu.inst     48484500                       # number of overall MSHR miss cycles
system.cpu.icache.overall_mshr_miss_latency::total     48484500                       # number of overall MSHR miss cycles
system.cpu.icache.demand_mshr_miss_rate::.cpu.inst     0.000020                       # mshr miss rate for demand accesses
system.cpu.icache.demand_mshr_miss_rate::total     0.000020                       # mshr miss rate for demand accesses
system.cpu.icache.overall_mshr_miss_rate::.cpu.inst     0.000020                       # mshr miss rate for overall accesses
system.cpu.icache.overall_mshr_miss_rate::total     0.000020                       # mshr miss rate for overall accesses
system.cpu.icache.demand_avg_mshr_miss_latency::.cpu.inst 75757.031250                       # average overall mshr miss latency
system.cpu.icache.demand_avg_mshr_miss_latency::total 75757.031250                       # average overall mshr miss latency
system.cpu.icache.overall_avg_mshr_miss_latency::.cpu.inst 75757.031250                       # average overall mshr miss latency
system.cpu.icache.overall_avg_mshr_miss_latency::total 75757.031250                       # average overall mshr miss latency
system.cpu.icache.replacements                    202                       # number of replacements
system.cpu.icache.ReadReq_hits::.cpu.inst     32144797                       # number of ReadReq hits
system.cpu.icache.ReadReq_hits::total        32144797                       # number of ReadReq hits
system.cpu.icache.ReadReq_misses::.cpu.inst          640                       # number of ReadReq misses
system.cpu.icache.ReadReq_misses::total           640                       # number of ReadReq misses
system.cpu.icache.ReadReq_miss_latency::.cpu.inst     49124500                       # number of ReadReq miss cycles
system.cpu.icache.ReadReq_miss_latency::total     49124500                       # number of ReadReq miss cycles
system.cpu.icache.ReadReq_accesses::.cpu.inst     32145437                       # number of ReadReq accesses(hits+misses)
system.cpu.icache.ReadReq_accesses::total     32145437                       # number of ReadReq accesses(hits+misses)
system.cpu.icache.ReadReq_miss_rate::.cpu.inst     0.000020                       # miss rate for ReadReq accesses
system.cpu.icache.ReadReq_miss_rate::total     0.000020                       # miss rate for ReadReq accesses
system.cpu.icache.ReadReq_avg_miss_latency::.cpu.inst 76757.031250                       # average ReadReq miss latency
system.cpu.icache.ReadReq_avg_miss_latency::total 76757.031250                       # average ReadReq miss latency
system.cpu.icache.ReadReq_mshr_misses::.cpu.inst          640                       # number of ReadReq MSHR misses
system.cpu.icache.ReadReq_mshr_misses::total          640                       # number of ReadReq MSHR misses
system.cpu.icache.ReadReq_mshr_miss_latency::.cpu.inst     48484500                       # number of ReadReq MSHR miss cycles
system.cpu.icache.ReadReq_mshr_miss_latency::total     48484500                       # number of ReadReq MSHR miss cycles
system.cpu.icache.ReadReq_mshr_miss_rate::.cpu.inst     0.000020                       # mshr miss rate for ReadReq accesses
system.cpu.icache.ReadReq_mshr_miss_rate::total     0.000020                       # mshr miss rate for ReadReq accesses
system.cpu.icache.ReadReq_avg_mshr_miss_latency::.cpu.inst 75757.031250                       # average ReadReq mshr miss latency
system.cpu.icache.ReadReq_avg_mshr_miss_latency::total 75757.031250                       # average ReadReq mshr miss latency
system.cpu.icache.power_state.pwrStateResidencyTicks::UNDEFINED 513825713500                       # Cumulative time (in ticks) in various power states
system.cpu.icache.tags.tagsinuse           390.464801                       # Cycle average of tags in use
system.cpu.icache.tags.total_refs            32145437                       # Total number of references to valid blocks.
system.cpu.icache.tags.sampled_refs               640                       # Sample count of references to valid blocks.
system.cpu.icache.tags.avg_refs          50227.245313                       # Average number of references to valid blocks.
system.cpu.icache.tags.warmup_cycle             87500                       # Cycle when the warmup percentage was hit.
system.cpu.icache.tags.occ_blocks::.cpu.inst   390.464801                       # Average occupied blocks per requestor
system.cpu.icache.tags.occ_percent::.cpu.inst     0.762627                       # Average percentage of cache occupancy
system.cpu.icache.tags.occ_percent::total     0.762627                       # Average percentage of cache occupancy
system.cpu.icache.tags.occ_task_id_blocks::1024          438                       # Occupied blocks per task id
system.cpu.icache.tags.age_task_id_blocks_1024::4          438                       # Occupied blocks per task id
system.cpu.icache.tags.occ_task_id_percent::1024     0.855469                       # Percentage of cache occupancy per task id
system.cpu.icache.tags.tag_accesses          64291514                       # Number of tag accesses
system.cpu.icache.tags.data_accesses         64291514                       # Number of data accesses
system.cpu.icache.tags.power_state.pwrStateResidencyTicks::UNDEFINED 513825713500                       # Cumulative time (in ticks) in various power states
system.cpu.itb.instHits                             0                       # ITB inst hits
system.cpu.itb.instMisses                           0                       # ITB inst misses
system.cpu.itb.readHits                             0                       # DTB read hits
system.cpu.itb.readMisses                           0                       # DTB read misses
system.cpu.itb.writeHits                            0                       # DTB write hits
system.cpu.itb.writeMisses                          0                       # DTB write misses
system.cpu.itb.inserts                              0                       # Number of times an entry is inserted into the TLB
system.cpu.itb.flushTlb                             0                       # Number of times complete TLB was flushed
system.cpu.itb.flushTlbMva                          0                       # Number of times TLB was flushed by MVA
system.cpu.itb.flushTlbMvaAsid                      0                       # Number of times TLB was flushed by MVA & ASID
system.cpu.itb.flushTlbAsid                         0                       # Number of times TLB was flushed by ASID
system.cpu.itb.flushedEntries                       0                       # Number of entries that have been flushed from TLB
system.cpu.itb.alignFaults                          0                       # Number of TLB faults due to alignment restrictions
system.cpu.itb.prefetchFaults                       0                       # Number of TLB faults due to prefetch
system.cpu.itb.domainFaults                         0                       # Number of TLB faults due to domain restrictions
system.cpu.itb.permsFaults                          0                       # Number of TLB faults due to permissions restrictions
system.cpu.itb.readAccesses                         0                       # DTB read accesses
system.cpu.itb.writeAccesses                        0                       # DTB write accesses
system.cpu.itb.instAccesses                         0                       # ITB inst accesses
system.cpu.itb.hits                                 0                       # Total TLB (inst and data) hits
system.cpu.itb.misses                               0                       # Total TLB (inst and data) misses
system.cpu.itb.accesses                             0                       # Total TLB (inst and data) accesses
system.cpu.itb.stage2_mmu.stage2_tlb.instHits            0                       # ITB inst hits
system.cpu.itb.stage2_mmu.stage2_tlb.instMisses            0                       # ITB inst misses
system.cpu.itb.stage2_mmu.stage2_tlb.readHits            0                       # DTB read hits
system.cpu.itb.stage2_mmu.stage2_tlb.readMisses            0                       # DTB read misses
system.cpu.itb.stage2_mmu.stage2_tlb.writeHits            0                       # DTB write hits
system.cpu.itb.stage2_mmu.stage2_tlb.writeMisses            0                       # DTB write misses
system.cpu.itb.stage2_mmu.stage2_tlb.inserts            0                       # Number of times an entry is inserted into the TLB
system.cpu.itb.stage2_mmu.stage2_tlb.flushTlb            0                       # Number of times complete TLB was flushed
system.cpu.itb.stage2_mmu.stage2_tlb.flushTlbMva            0                       # Number of times TLB was flushed by MVA
system.cpu.itb.stage2_mmu.stage2_tlb.flushTlbMvaAsid            0                       # Number of times TLB was flushed by MVA & ASID
system.cpu.itb.stage2_mmu.stage2_tlb.flushTlbAsid            0                       # Number of times TLB was flushed by ASID
system.cpu.itb.stage2_mmu.stage2_tlb.flushedEntries            0                       # Number of entries that have been flushed from TLB
system.cpu.itb.stage2_mmu.stage2_tlb.alignFaults            0                       # Number of TLB faults due to alignment restrictions
system.cpu.itb.stage2_mmu.stage2_tlb.prefetchFaults            0                       # Number of TLB faults due to prefetch
system.cpu.itb.stage2_mmu.stage2_tlb.domainFaults            0                       # Number of TLB faults due to domain restrictions
system.cpu.itb.stage2_mmu.stage2_tlb.permsFaults            0                       # Number of TLB faults due to permissions restrictions
system.cpu.itb.stage2_mmu.stage2_tlb.readAccesses            0                       # DTB read accesses
system.cpu.itb.stage2_mmu.stage2_tlb.writeAccesses            0                       # DTB write accesses
system.cpu.itb.stage2_mmu.stage2_tlb.instAccesses            0                       # ITB inst accesses
system.cpu.itb.stage2_mmu.stage2_tlb.hits            0                       # Total TLB (inst and data) hits
system.cpu.itb.stage2_mmu.stage2_tlb.misses            0                       # Total TLB (inst and data) misses
system.cpu.itb.stage2_mmu.stage2_tlb.accesses            0                       # Total TLB (inst and data) accesses
system.cpu.itb.stage2_mmu.stage2_tlb.walker.walks            0                       # Table walker walks requested
system.cpu.itb.stage2_mmu.stage2_tlb.walker.requestOrigin_Requested::Data            0                       # Table walker requests started/completed, data/inst
system.cpu.itb.stage2_mmu.stage2_tlb.walker.requestOrigin_Requested::Inst            0                       # Table walker requests started/completed, data/inst
system.cpu.itb.stage2_mmu.stage2_tlb.walker.requestOrigin_Requested::total            0                       # Table walker requests started/completed, data/inst
system.cpu.itb.stage2_mmu.stage2_tlb.walker.requestOrigin_Completed::Data            0                       # Table walker requests started/completed, data/inst
system.cpu.itb.stage2_mmu.stage2_tlb.walker.requestOrigin_Completed::Inst            0                       # Table walker requests started/completed, data/inst
system.cpu.itb.stage2_mmu.stage2_tlb.walker.requestOrigin_Completed::total            0                       # Table walker requests started/completed, data/inst
system.cpu.itb.stage2_mmu.stage2_tlb.walker.requestOrigin::total            0                       # Table walker requests started/completed, data/inst
system.cpu.itb.stage2_mmu.stage2_tlb.walker.power_state.pwrStateResidencyTicks::UNDEFINED 513825713500                       # Cumulative time (in ticks) in various power states
system.cpu.itb.walker.walks                         0                       # Table walker walks requested
system.cpu.itb.walker.requestOrigin_Requested::Data            0                       # Table walker requests started/completed, data/inst
system.cpu.itb.walker.requestOrigin_Requested::Inst            0                       # Table walker requests started/completed, data/inst
system.cpu.itb.walker.requestOrigin_Requested::total            0                       # Table walker requests started/completed, data/inst
system.cpu.itb.walker.requestOrigin_Completed::Data            0                       # Table walker requests started/completed, data/inst
system.cpu.itb.walker.requestOrigin_Completed::Inst            0                       # Table walker requests started/completed, data/inst
system.cpu.itb.walker.requestOrigin_Completed::total            0                       # Table walker requests started/completed, data/inst
system.cpu.itb.walker.requestOrigin::total            0                       # Table walker requests started/completed, data/inst
system.cpu.itb.walker.power_state.pwrStateResidencyTicks::UNDEFINED 513825713500                       # Cumulative time (in ticks) in various power states
system.cpu.power_state.pwrStateResidencyTicks::ON 513825713500                       # Cumulative time (in ticks) in various power states
system.cpu.thread_0.numInsts                100000000                       # Number of Instructions committed
system.cpu.thread_0.numOps                  184218810                       # Number of Ops committed
system.cpu.thread_0.numMemRefs                      0                       # Number of Memory References
system.cpu_clk_domain.clock                       500                       # Clock period in ticks
system.cpu_voltage_domain.voltage                   1                       # Voltage in Volts
system.l2.demand_hits::.cpu.inst                   52                       # number of demand (read+write) hits
system.l2.demand_hits::.cpu.data                  474                       # number of demand (read+write) hits
system.l2.demand_hits::total                      526                       # number of demand (read+write) hits
system.l2.overall_hits::.cpu.inst                  52                       # number of overall hits
system.l2.overall_hits::.cpu.data                 474                       # number of overall hits
system.l2.overall_hits::total                     526                       # number of overall hits
system.l2.demand_misses::.cpu.inst                588                       # number of demand (read+write) misses
system.l2.demand_misses::.cpu.data            5263310                       # number of demand (read+write) misses
system.l2.demand_misses::total                5263898                       # number of demand (read+write) misses
system.l2.overall_misses::.cpu.inst               588                       # number of overall misses
system.l2.overall_misses::.cpu.data           5263310                       # number of overall misses
system.l2.overall_misses::total               5263898                       # number of overall misses
system.l2.demand_miss_latency::.cpu.inst     46953500                       # number of demand (read+write) miss cycles
system.l2.demand_miss_latency::.cpu.data 424029149000                       # number of demand (read+write) miss cycles
system.l2.demand_miss_latency::total     424076102500                       # number of demand (read+write) miss cycles
system.l2.overall_miss_latency::.cpu.inst     46953500                       # number of overall miss cycles
system.l2.overall_miss_latency::.cpu.data 424029149000                       # number of overall miss cycles
system.l2.overall_miss_latency::total    424076102500                       # number of overall miss cycles
system.l2.demand_accesses::.cpu.inst              640                       # number of demand (read+write) accesses
system.l2.demand_accesses::.cpu.data          5263784                       # number of demand (read+write) accesses
system.l2.demand_accesses::total              5264424                       # number of demand (read+write) accesses
system.l2.overall_accesses::.cpu.inst             640                       # number of overall (read+write) accesses
system.l2.overall_accesses::.cpu.data         5263784                       # number of overall (read+write) accesses
system.l2.overall_accesses::total             5264424                       # number of overall (read+write) accesses
system.l2.demand_miss_rate::.cpu.inst        0.918750                       # miss rate for demand accesses
system.l2.demand_miss_rate::.cpu.data        0.999910                       # miss rate for demand accesses
system.l2.demand_miss_rate::total            0.999900                       # miss rate for demand accesses
system.l2.overall_miss_rate::.cpu.inst       0.918750                       # miss rate for overall accesses
system.l2.overall_miss_rate::.cpu.data       0.999910                       # miss rate for overall accesses
system.l2.overall_miss_rate::total           0.999900                       # miss rate for overall accesses
system.l2.demand_avg_miss_latency::.cpu.inst 79852.891156                       # average overall miss latency
system.l2.demand_avg_miss_latency::.cpu.data 80563.210033                       # average overall miss latency
system.l2.demand_avg_miss_latency::total 80563.130688                       # average overall miss latency
system.l2.overall_avg_miss_latency::.cpu.inst 79852.891156                       # average overall miss latency
system.l2.overall_avg_miss_latency::.cpu.data 80563.210033                       # average overall miss latency
system.l2.overall_avg_miss_latency::total 80563.130688                       # average overall miss latency
system.l2.blocked_cycles::no_mshrs                  0                       # number of cycles access was blocked
system.l2.blocked_cycles::no_targets                0                       # number of cycles access was blocked
system.l2.blocked::no_mshrs                         0                       # number of cycles access was blocked
system.l2.blocked::no_targets                       0                       # number of cycles access was blocked
system.l2.avg_blocked_cycles::no_mshrs            nan                       # average number of cycles each access was blocked
system.l2.avg_blocked_cycles::no_targets          nan                       # average number of cycles each access was blocked
system.l2.writebacks::.writebacks             5230284                       # number of writebacks
system.l2.writebacks::total                   5230284                       # number of writebacks
system.l2.demand_mshr_hits::.cpu.data               6                       # number of demand (read+write) MSHR hits
system.l2.demand_mshr_hits::total                   6                       # number of demand (read+write) MSHR hits
system.l2.overall_mshr_hits::.cpu.data              6                       # number of overall MSHR hits
system.l2.overall_mshr_hits::total                  6                       # number of overall MSHR hits
system.l2.demand_mshr_misses::.cpu.inst           588                       # number of demand (read+write) MSHR misses
system.l2.demand_mshr_misses::.cpu.data       5263304                       # number of demand (read+write) MSHR misses
system.l2.demand_mshr_misses::total           5263892                       # number of demand (read+write) MSHR misses
system.l2.overall_mshr_misses::.cpu.inst          588                       # number of overall MSHR misses
system.l2.overall_mshr_misses::.cpu.data      5263304                       # number of overall MSHR misses
system.l2.overall_mshr_misses::total          5263892                       # number of overall MSHR misses
system.l2.demand_mshr_miss_latency::.cpu.inst     41073500                       # number of demand (read+write) MSHR miss cycles
system.l2.demand_mshr_miss_latency::.cpu.data 371395721500                       # number of demand (read+write) MSHR miss cycles
system.l2.demand_mshr_miss_latency::total 371436795000                       # number of demand (read+write) MSHR miss cycles
system.l2.overall_mshr_miss_latency::.cpu.inst     41073500                       # number of overall MSHR miss cycles
system.l2.overall_mshr_miss_latency::.cpu.data 371395721500                       # number of overall MSHR miss cycles
system.l2.overall_mshr_miss_latency::total 371436795000                       # number of overall MSHR miss cycles
system.l2.demand_mshr_miss_rate::.cpu.inst     0.918750                       # mshr miss rate for demand accesses
system.l2.demand_mshr_miss_rate::.cpu.data     0.999909                       # mshr miss rate for demand accesses
system.l2.demand_mshr_miss_rate::total       0.999899                       # mshr miss rate for demand accesses
system.l2.overall_mshr_miss_rate::.cpu.inst     0.918750                       # mshr miss rate for overall accesses
system.l2.overall_mshr_miss_rate::.cpu.data     0.999909                       # mshr miss rate for overall accesses
system.l2.overall_mshr_miss_rate::total      0.999899                       # mshr miss rate for overall accesses
system.l2.demand_avg_mshr_miss_latency::.cpu.inst 69852.891156                       # average overall mshr miss latency
system.l2.demand_avg_mshr_miss_latency::.cpu.data 70563.228250                       # average overall mshr miss latency
system.l2.demand_avg_mshr_miss_latency::total 70563.148902                       # average overall mshr miss latency
system.l2.overall_avg_mshr_miss_latency::.cpu.inst 69852.891156                       # average overall mshr miss latency
system.l2.overall_avg_mshr_miss_latency::.cpu.data 70563.228250                       # average overall mshr miss latency
system.l2.overall_avg_mshr_miss_latency::total 70563.148902                       # average overall mshr miss latency
system.l2.replacements                        5231207                       # number of replacements
system.l2.WritebackDirty_hits::.writebacks      5263159                       # number of WritebackDirty hits
system.l2.WritebackDirty_hits::total          5263159                       # number of WritebackDirty hits
system.l2.WritebackDirty_accesses::.writebacks      5263159                       # number of WritebackDirty accesses(hits+misses)
system.l2.WritebackDirty_accesses::total      5263159                       # number of WritebackDirty accesses(hits+misses)
system.l2.WritebackClean_hits::.writebacks          196                       # number of WritebackClean hits
system.l2.WritebackClean_hits::total              196                       # number of WritebackClean hits
system.l2.WritebackClean_accesses::.writebacks          196                       # number of WritebackClean accesses(hits+misses)
system.l2.WritebackClean_accesses::total          196                       # number of WritebackClean accesses(hits+misses)
system.l2.ReadExReq_hits::.cpu.data               186                       # number of ReadExReq hits
system.l2.ReadExReq_hits::total                   186                       # number of ReadExReq hits
system.l2.ReadExReq_misses::.cpu.data         5263024                       # number of ReadExReq misses
system.l2.ReadExReq_misses::total             5263024                       # number of ReadExReq misses
system.l2.ReadExReq_miss_latency::.cpu.data 424004311500                       # number of ReadExReq miss cycles
system.l2.ReadExReq_miss_latency::total  424004311500                       # number of ReadExReq miss cycles
system.l2.ReadExReq_accesses::.cpu.data       5263210                       # number of ReadExReq accesses(hits+misses)
system.l2.ReadExReq_accesses::total           5263210                       # number of ReadExReq accesses(hits+misses)
system.l2.ReadExReq_miss_rate::.cpu.data     0.999965                       # miss rate for ReadExReq accesses
system.l2.ReadExReq_miss_rate::total         0.999965                       # miss rate for ReadExReq accesses
system.l2.ReadExReq_avg_miss_latency::.cpu.data 80562.868704                       # average ReadExReq miss latency
system.l2.ReadExReq_avg_miss_latency::total 80562.868704                       # average ReadExReq miss latency
system.l2.ReadExReq_mshr_misses::.cpu.data      5263024                       # number of ReadExReq MSHR misses
system.l2.ReadExReq_mshr_misses::total        5263024                       # number of ReadExReq MSHR misses
system.l2.ReadExReq_mshr_miss_latency::.cpu.data 371374081500                       # number of ReadExReq MSHR miss cycles
system.l2.ReadExReq_mshr_miss_latency::total 371374081500                       # number of ReadExReq MSHR miss cycles
system.l2.ReadExReq_mshr_miss_rate::.cpu.data     0.999965                       # mshr miss rate for ReadExReq accesses
system.l2.ReadExReq_mshr_miss_rate::total     0.999965                       # mshr miss rate for ReadExReq accesses
system.l2.ReadExReq_avg_mshr_miss_latency::.cpu.data 70562.870604                       # average ReadExReq mshr miss latency
system.l2.ReadExReq_avg_mshr_miss_latency::total 70562.870604                       # average ReadExReq mshr miss latency
system.l2.ReadCleanReq_hits::.cpu.inst             52                       # number of ReadCleanReq hits
system.l2.ReadCleanReq_hits::total                 52                       # number of ReadCleanReq hits
system.l2.ReadCleanReq_misses::.cpu.inst          588                       # number of ReadCleanReq misses
system.l2.ReadCleanReq_misses::total              588                       # number of ReadCleanReq misses
system.l2.ReadCleanReq_miss_latency::.cpu.inst     46953500                       # number of ReadCleanReq miss cycles
system.l2.ReadCleanReq_miss_latency::total     46953500                       # number of ReadCleanReq miss cycles
system.l2.ReadCleanReq_accesses::.cpu.inst          640                       # number of ReadCleanReq accesses(hits+misses)
system.l2.ReadCleanReq_accesses::total            640                       # number of ReadCleanReq accesses(hits+misses)
system.l2.ReadCleanReq_miss_rate::.cpu.inst     0.918750                       # miss rate for ReadCleanReq accesses
system.l2.ReadCleanReq_miss_rate::total      0.918750                       # miss rate for ReadCleanReq accesses
system.l2.ReadCleanReq_avg_miss_latency::.cpu.inst 79852.891156                       # average ReadCleanReq miss latency
system.l2.ReadCleanReq_avg_miss_latency::total 79852.891156                       # average ReadCleanReq miss latency
system.l2.ReadCleanReq_mshr_misses::.cpu.inst          588                       # number of ReadCleanReq MSHR misses
system.l2.ReadCleanReq_mshr_misses::total          588                       # number of ReadCleanReq MSHR misses
system.l2.ReadCleanReq_mshr_miss_latency::.cpu.inst     41073500                       # number of ReadCleanReq MSHR miss cycles
system.l2.ReadCleanReq_mshr_miss_latency::total     41073500                       # number of ReadCleanReq MSHR miss cycles
system.l2.ReadCleanReq_mshr_miss_rate::.cpu.inst     0.918750                       # mshr miss rate for ReadCleanReq accesses
system.l2.ReadCleanReq_mshr_miss_rate::total     0.918750                       # mshr miss rate for ReadCleanReq accesses
system.l2.ReadCleanReq_avg_mshr_miss_latency::.cpu.inst 69852.891156                       # average ReadCleanReq mshr miss latency
system.l2.ReadCleanReq_avg_mshr_miss_latency::total 69852.891156                       # average ReadCleanReq mshr miss latency
system.l2.ReadSharedReq_hits::.cpu.data           288                       # number of ReadSharedReq hits
system.l2.ReadSharedReq_hits::total               288                       # number of ReadSharedReq hits
system.l2.ReadSharedReq_misses::.cpu.data          286                       # number of ReadSharedReq misses
system.l2.ReadSharedReq_misses::total             286                       # number of ReadSharedReq misses
system.l2.ReadSharedReq_miss_latency::.cpu.data     24837500                       # number of ReadSharedReq miss cycles
system.l2.ReadSharedReq_miss_latency::total     24837500                       # number of ReadSharedReq miss cycles
system.l2.ReadSharedReq_accesses::.cpu.data          574                       # number of ReadSharedReq accesses(hits+misses)
system.l2.ReadSharedReq_accesses::total           574                       # number of ReadSharedReq accesses(hits+misses)
system.l2.ReadSharedReq_miss_rate::.cpu.data     0.498258                       # miss rate for ReadSharedReq accesses
system.l2.ReadSharedReq_miss_rate::total     0.498258                       # miss rate for ReadSharedReq accesses
system.l2.ReadSharedReq_avg_miss_latency::.cpu.data 86844.405594                       # average ReadSharedReq miss latency
system.l2.ReadSharedReq_avg_miss_latency::total 86844.405594                       # average ReadSharedReq miss latency
system.l2.ReadSharedReq_mshr_hits::.cpu.data            6                       # number of ReadSharedReq MSHR hits
system.l2.ReadSharedReq_mshr_hits::total            6                       # number of ReadSharedReq MSHR hits
system.l2.ReadSharedReq_mshr_misses::.cpu.data          280                       # number of ReadSharedReq MSHR misses
system.l2.ReadSharedReq_mshr_misses::total          280                       # number of ReadSharedReq MSHR misses
system.l2.ReadSharedReq_mshr_miss_latency::.cpu.data     21640000                       # number of ReadSharedReq MSHR miss cycles
system.l2.ReadSharedReq_mshr_miss_latency::total     21640000                       # number of ReadSharedReq MSHR miss cycles
system.l2.ReadSharedReq_mshr_miss_rate::.cpu.data     0.487805                       # mshr miss rate for ReadSharedReq accesses
system.l2.ReadSharedReq_mshr_miss_rate::total     0.487805                       # mshr miss rate for ReadSharedReq accesses
system.l2.ReadSharedReq_avg_mshr_miss_latency::.cpu.data 77285.714286                       # average ReadSharedReq mshr miss latency
system.l2.ReadSharedReq_avg_mshr_miss_latency::total 77285.714286                       # average ReadSharedReq mshr miss latency
system.l2.power_state.pwrStateResidencyTicks::UNDEFINED 513825713500                       # Cumulative time (in ticks) in various power states
system.l2.tags.tagsinuse                 32511.903412                       # Cycle average of tags in use
system.l2.tags.total_refs                    10528089                       # Total number of references to valid blocks.
system.l2.tags.sampled_refs                   5263975                       # Sample count of references to valid blocks.
system.l2.tags.avg_refs                      2.000026                       # Average number of references to valid blocks.
system.l2.tags.warmup_cycle                     77000                       # Cycle when the warmup percentage was hit.
system.l2.tags.occ_blocks::.writebacks       0.497529                       # Average occupied blocks per requestor
system.l2.tags.occ_blocks::.cpu.inst         5.205649                       # Average occupied blocks per requestor
system.l2.tags.occ_blocks::.cpu.data     32506.200234                       # Average occupied blocks per requestor
system.l2.tags.occ_percent::.writebacks      0.000015                       # Average percentage of cache occupancy
system.l2.tags.occ_percent::.cpu.inst        0.000159                       # Average percentage of cache occupancy
system.l2.tags.occ_percent::.cpu.data        0.992011                       # Average percentage of cache occupancy
system.l2.tags.occ_percent::total            0.992185                       # Average percentage of cache occupancy
system.l2.tags.occ_task_id_blocks::1024         32768                       # Occupied blocks per task id
system.l2.tags.age_task_id_blocks_1024::0          103                       # Occupied blocks per task id
system.l2.tags.age_task_id_blocks_1024::1          926                       # Occupied blocks per task id
system.l2.tags.age_task_id_blocks_1024::2         9263                       # Occupied blocks per task id
system.l2.tags.age_task_id_blocks_1024::3        22476                       # Occupied blocks per task id
system.l2.tags.occ_task_id_percent::1024            1                       # Percentage of cache occupancy per task id
system.l2.tags.tag_accesses                  89488743                       # Number of tag accesses
system.l2.tags.data_accesses                 89488743                       # Number of data accesses
system.l2.tags.power_state.pwrStateResidencyTicks::UNDEFINED 513825713500                       # Cumulative time (in ticks) in various power states
system.mem_ctrls.avgPriority_.writebacks::samples   5230284.00                       # Average QoS priority value for accepted requests
system.mem_ctrls.avgPriority_.cpu.inst::samples       588.00                       # Average QoS priority value for accepted requests
system.mem_ctrls.avgPriority_.cpu.data::samples   5263303.00                       # Average QoS priority value for accepted requests
system.mem_ctrls.priorityMinLatency      0.000000018750                       # per QoS priority minimum request to response latency (s)
system.mem_ctrls.priorityMaxLatency      0.000425504500                       # per QoS priority maximum request to response latency (s)
system.mem_ctrls.numReadWriteTurnArounds       326864                       # Number of turnarounds from READ to WRITE
system.mem_ctrls.numWriteReadTurnArounds       326864                       # Number of turnarounds from WRITE to READ
system.mem_ctrls.numStayReadState            15554049                       # Number of times bus staying in READ state
system.mem_ctrls.numStayWriteState            4911633                       # Number of times bus staying in WRITE state
system.mem_ctrls.readReqs                     5263891                       # Number of read requests accepted
system.mem_ctrls.writeReqs                    5230284                       # Number of write requests accepted
system.mem_ctrls.readBursts                   5263891                       # Number of controller read bursts, including those serviced by the write queue
system.mem_ctrls.writeBursts                  5230284                       # Number of controller write bursts, including those merged in the write queue
system.mem_ctrls.servicedByWrQ                      0                       # Number of controller read bursts serviced by the write queue
system.mem_ctrls.mergedWrBursts                     0                       # Number of controller write bursts merged with an existing one
system.mem_ctrls.neitherReadNorWriteReqs            0                       # Number of requests that are neither read nor write
system.mem_ctrls.avgRdQLen                       1.01                       # Average read queue length when enqueuing
system.mem_ctrls.avgWrQLen                      25.81                       # Average write queue length when enqueuing
system.mem_ctrls.numRdRetry                         0                       # Number of times read queue was full causing retry
system.mem_ctrls.numWrRetry                         0                       # Number of times write queue was full causing retry
system.mem_ctrls.readPktSize::0                     0                       # Read request sizes (log2)
system.mem_ctrls.readPktSize::1                     0                       # Read request sizes (log2)
system.mem_ctrls.readPktSize::2                     0                       # Read request sizes (log2)
system.mem_ctrls.readPktSize::3                     0                       # Read request sizes (log2)
system.mem_ctrls.readPktSize::4                     0                       # Read request sizes (log2)
system.mem_ctrls.readPktSize::5                     0                       # Read request sizes (log2)
system.mem_ctrls.readPktSize::6               5263891                       # Read request sizes (log2)
system.mem_ctrls.writePktSize::0                    0                       # Write request sizes (log2)
system.mem_ctrls.writePktSize::1                    0                       # Write request sizes (log2)
system.mem_ctrls.writePktSize::2                    0                       # Write request sizes (log2)
system.mem_ctrls.writePktSize::3                    0                       # Write request sizes (log2)
system.mem_ctrls.writePktSize::4                    0                       # Write request sizes (log2)
system.mem_ctrls.writePktSize::5                    0                       # Write request sizes (log2)
system.mem_ctrls.writePktSize::6              5230284                       # Write request sizes (log2)
system.mem_ctrls.rdQLenPdf::0                 5262929                       # What read queue length does an incoming req see
system.mem_ctrls.rdQLenPdf::1                     936                       # What read queue length does an incoming req see
system.mem_ctrls.rdQLenPdf::2                      23                       # What read queue length does an incoming req see
system.mem_ctrls.rdQLenPdf::3                       3                       # What read queue length does an incoming req see
system.mem_ctrls.rdQLenPdf::4                       0                       # What read queue length does an incoming req see
system.mem_ctrls.rdQLenPdf::5                       0                       # What read queue length does an incoming req see
system.mem_ctrls.rdQLenPdf::6                       0                       # What read queue length does an incoming req see
system.mem_ctrls.rdQLenPdf::7                       0                       # What read queue length does an incoming req see
system.mem_ctrls.rdQLenPdf::8                       0                       # What read queue length does an incoming req see
system.mem_ctrls.rdQLenPdf::9                       0                       # What read queue length does an incoming req see
system.mem_ctrls.rdQLenPdf::10                      0                       # What read queue length does an incoming req see
system.mem_ctrls.rdQLenPdf::11                      0                       # What read queue length does an incoming req see
system.mem_ctrls.rdQLenPdf::12                      0                       # What read queue length does an incoming req see
system.mem_ctrls.rdQLenPdf::13                      0                       # What read queue length does an incoming req see
system.mem_ctrls.rdQLenPdf::14                      0                       # What read queue length does an incoming req see
[...]
system.mem_ctrls.dram.bw_write::.writebacks    651462485                       # Write bandwidth from this memory (bytes/s)
system.mem_ctrls.dram.bw_write::total       651462485                       # Write bandwidth from this memory (bytes/s)
system.mem_ctrls.dram.bw_total::.writebacks    651462485                       # Total bandwidth to/from this memory (bytes/s)
system.mem_ctrls.dram.bw_total::.cpu.inst        73239                       # Total bandwidth to/from this memory (bytes/s)
system.mem_ctrls.dram.bw_total::.cpu.data    655575194                       # Total bandwidth to/from this memory (bytes/s)
system.mem_ctrls.dram.bw_total::total      1307110918                       # Total bandwidth to/from this memory (bytes/s)
system.mem_ctrls.dram.readBursts              5263891                       # Number of DRAM read bursts
system.mem_ctrls.dram.writeBursts             5230266                       # Number of DRAM write bursts
system.mem_ctrls.dram.perBankRdBursts::0       328922                       # Per bank write bursts
system.mem_ctrls.dram.perBankRdBursts::1       329088                       # Per bank write bursts
system.mem_ctrls.dram.perBankRdBursts::2       329059                       # Per bank write bursts
system.mem_ctrls.dram.perBankRdBursts::3       329078                       # Per bank write bursts
system.mem_ctrls.dram.perBankRdBursts::4       328991                       # Per bank write bursts
system.mem_ctrls.dram.perBankRdBursts::5       329077                       # Per bank write bursts
system.mem_ctrls.dram.perBankRdBursts::6       329081                       # Per bank write bursts
system.mem_ctrls.dram.perBankRdBursts::7       329025                       # Per bank write bursts
system.mem_ctrls.dram.perBankRdBursts::8       328902                       # Per bank write bursts
system.mem_ctrls.dram.perBankRdBursts::9       328864                       # Per bank write bursts
system.mem_ctrls.dram.perBankRdBursts::10       328904                       # Per bank write bursts
system.mem_ctrls.dram.perBankRdBursts::11       328922                       # Per bank write bursts
system.mem_ctrls.dram.perBankRdBursts::12       329019                       # Per bank write bursts
system.mem_ctrls.dram.perBankRdBursts::13       329023                       # Per bank write bursts
system.mem_ctrls.dram.perBankRdBursts::14       328993                       # Per bank write bursts
system.mem_ctrls.dram.perBankRdBursts::15       328943                       # Per bank write bursts
system.mem_ctrls.dram.perBankWrBursts::0       326789                       # Per bank write bursts
system.mem_ctrls.dram.perBankWrBursts::1       326941                       # Per bank write bursts
system.mem_ctrls.dram.perBankWrBursts::2       326938                       # Per bank write bursts
system.mem_ctrls.dram.perBankWrBursts::3       327006                       # Per bank write bursts
system.mem_ctrls.dram.perBankWrBursts::4       326926                       # Per bank write bursts
system.mem_ctrls.dram.perBankWrBursts::5       326985                       # Per bank write bursts
system.mem_ctrls.dram.perBankWrBursts::6       326986                       # Per bank write bursts
system.mem_ctrls.dram.perBankWrBursts::7       326958                       # Per bank write bursts
system.mem_ctrls.dram.perBankWrBursts::8       326785                       # Per bank write bursts
system.mem_ctrls.dram.perBankWrBursts::9       326784                       # Per bank write bursts
system.mem_ctrls.dram.perBankWrBursts::10       326784                       # Per bank write bursts
system.mem_ctrls.dram.perBankWrBursts::11       326839                       # Per bank write bursts
system.mem_ctrls.dram.perBankWrBursts::12       326913                       # Per bank write bursts
system.mem_ctrls.dram.perBankWrBursts::13       326906                       # Per bank write bursts
system.mem_ctrls.dram.perBankWrBursts::14       326861                       # Per bank write bursts
system.mem_ctrls.dram.perBankWrBursts::15       326865                       # Per bank write bursts
system.mem_ctrls.dram.totQLat             58161629500                       # Total ticks spent queuing
system.mem_ctrls.dram.totBusLat           26319455000                       # Total ticks spent in databus transfers
system.mem_ctrls.dram.totMemAccLat       156859585750                       # Total ticks spent from burst creation until serviced by the DRAM
system.mem_ctrls.dram.avgQLat                11049.17                       # Average queueing delay per DRAM burst
system.mem_ctrls.dram.avgBusLat               5000.00                       # Average bus latency per DRAM burst
system.mem_ctrls.dram.avgMemAccLat           29799.17                       # Average memory access latency per DRAM burst
system.mem_ctrls.dram.readRowHits             4834760                       # Number of row buffer hits during reads
system.mem_ctrls.dram.writeRowHits            4858428                       # Number of row buffer hits during writes
system.mem_ctrls.dram.readRowHitRate            91.85                       # Row buffer hit rate for reads
system.mem_ctrls.dram.writeRowHitRate           92.89                       # Row buffer hit rate for writes
system.mem_ctrls.dram.bytesPerActivate::samples       800968                       # Bytes accessed per row activation
system.mem_ctrls.dram.bytesPerActivate::mean   838.517873                       # Bytes accessed per row activation
system.mem_ctrls.dram.bytesPerActivate::gmean   731.484762                       # Bytes accessed per row activation
system.mem_ctrls.dram.bytesPerActivate::stdev   299.067102                       # Bytes accessed per row activation
system.mem_ctrls.dram.bytesPerActivate::0-127        24493      3.06%      3.06% # Bytes accessed per row activation
system.mem_ctrls.dram.bytesPerActivate::128-255        34287      4.28%      7.34% # Bytes accessed per row activation
system.mem_ctrls.dram.bytesPerActivate::256-383        24782      3.09%     10.43% # Bytes accessed per row activation
system.mem_ctrls.dram.bytesPerActivate::384-511        45418      5.67%     16.10% # Bytes accessed per row activation
system.mem_ctrls.dram.bytesPerActivate::512-639        61673      7.70%     23.80% # Bytes accessed per row activation
system.mem_ctrls.dram.bytesPerActivate::640-767        28542      3.56%     27.37% # Bytes accessed per row activation
system.mem_ctrls.dram.bytesPerActivate::768-895        21832      2.73%     30.09% # Bytes accessed per row activation
system.mem_ctrls.dram.bytesPerActivate::896-1023        38368      4.79%     34.88% # Bytes accessed per row activation
system.mem_ctrls.dram.bytesPerActivate::1024-1151       521573     65.12%    100.00% # Bytes accessed per row activation
system.mem_ctrls.dram.bytesPerActivate::total       800968                       # Bytes accessed per row activation
system.mem_ctrls.dram.bytesRead             336889024                       # Total number of bytes read from DRAM
system.mem_ctrls.dram.bytesWritten          334737024                       # Total number of bytes written to DRAM
system.mem_ctrls.dram.avgRdBW              655.648433                       # Average DRAM read bandwidth in MiBytes/s
system.mem_ctrls.dram.avgWrBW              651.460243                       # Average DRAM write bandwidth in MiBytes/s
system.mem_ctrls.dram.peakBW                 12800.00                       # Theoretical peak bandwidth in MiByte/s
system.mem_ctrls.dram.busUtil                   10.21                       # Data bus utilization in percentage
system.mem_ctrls.dram.busUtilRead                5.12                       # Data bus utilization in percentage for reads
system.mem_ctrls.dram.busUtilWrite               5.09                       # Data bus utilization in percentage for writes
system.mem_ctrls.dram.pageHitRate               92.37                       # Row buffer hit rate, read and write combined
system.mem_ctrls.dram.power_state.pwrStateResidencyTicks::UNDEFINED 513825713500                       # Cumulative time (in ticks) in various power states
system.mem_ctrls.dram.rank0.actEnergy      2859270120                       # Energy for activate commands per rank (pJ)
system.mem_ctrls.dram.rank0.preEnergy      1519734315                       # Energy for precharge commands per rank (pJ)
system.mem_ctrls.dram.rank0.readEnergy    18794771940                       # Energy for read commands per rank (pJ)
system.mem_ctrls.dram.rank0.writeEnergy   13653061380                       # Energy for write commands per rank (pJ)
system.mem_ctrls.dram.rank0.refreshEnergy 40560708240.000008                       # Energy for refresh commands per rank (pJ)
system.mem_ctrls.dram.rank0.actBackEnergy 122917162080                       # Energy for active background per rank (pJ)
system.mem_ctrls.dram.rank0.preBackEnergy  93799884960                       # Energy for precharge background per rank (pJ)
system.mem_ctrls.dram.rank0.actPowerDownEnergy            0                       # Energy for active power-down per rank (pJ)
system.mem_ctrls.dram.rank0.prePowerDownEnergy            0                       # Energy for precharge power-down per rank (pJ)
system.mem_ctrls.dram.rank0.selfRefreshEnergy            0                       # Energy for self refresh per rank (pJ)
system.mem_ctrls.dram.rank0.totalEnergy  294104593035                       # Total energy per rank (pJ)
system.mem_ctrls.dram.rank0.averagePower   572.382007                       # Core power per rank (mW)
system.mem_ctrls.dram.rank0.totalIdleTime            0                       # Total Idle time Per DRAM Rank
system.mem_ctrls.dram.rank0.pwrStateTime::IDLE 240050614000                       # Time in different power states
system.mem_ctrls.dram.rank0.pwrStateTime::REF  17157660000                       # Time in different power states
system.mem_ctrls.dram.rank0.pwrStateTime::SREF            0                       # Time in different power states
system.mem_ctrls.dram.rank0.pwrStateTime::PRE_PDN            0                       # Time in different power states
system.mem_ctrls.dram.rank0.pwrStateTime::ACT 256617439500                       # Time in different power states
system.mem_ctrls.dram.rank0.pwrStateTime::ACT_PDN            0                       # Time in different power states
system.mem_ctrls.dram.rank1.actEnergy      2859648540                       # Energy for activate commands per rank (pJ)
system.mem_ctrls.dram.rank1.preEnergy      1519939245                       # Energy for precharge commands per rank (pJ)
system.mem_ctrls.dram.rank1.readEnergy    18789409800                       # Energy for read commands per rank (pJ)
system.mem_ctrls.dram.rank1.writeEnergy   13648927140                       # Energy for write commands per rank (pJ)
system.mem_ctrls.dram.rank1.refreshEnergy 40560708240.000008                       # Energy for refresh commands per rank (pJ)
system.mem_ctrls.dram.rank1.actBackEnergy 122850467520                       # Energy for active background per rank (pJ)
system.mem_ctrls.dram.rank1.preBackEnergy  93856048800                       # Energy for precharge background per rank (pJ)
system.mem_ctrls.dram.rank1.actPowerDownEnergy            0                       # Energy for active power-down per rank (pJ)
system.mem_ctrls.dram.rank1.prePowerDownEnergy            0                       # Energy for precharge power-down per rank (pJ)
system.mem_ctrls.dram.rank1.selfRefreshEnergy            0                       # Energy for self refresh per rank (pJ)
system.mem_ctrls.dram.rank1.totalEnergy  294085149285                       # Total energy per rank (pJ)
system.mem_ctrls.dram.rank1.averagePower   572.344166                       # Core power per rank (mW)
system.mem_ctrls.dram.rank1.totalIdleTime            0                       # Total Idle time Per DRAM Rank
system.mem_ctrls.dram.rank1.pwrStateTime::IDLE 240197373000                       # Time in different power states
system.mem_ctrls.dram.rank1.pwrStateTime::REF  17157660000                       # Time in different power states
system.mem_ctrls.dram.rank1.pwrStateTime::SREF            0                       # Time in different power states
system.mem_ctrls.dram.rank1.pwrStateTime::PRE_PDN            0                       # Time in different power states
system.mem_ctrls.dram.rank1.pwrStateTime::ACT 256470680500                       # Time in different power states
system.mem_ctrls.dram.rank1.pwrStateTime::ACT_PDN            0                       # Time in different power states
system.mem_ctrls.power_state.pwrStateResidencyTicks::UNDEFINED 513825713500                       # Cumulative time (in ticks) in various power states
system.membus.trans_dist::ReadResp                868                       # Transaction distribution
system.membus.trans_dist::WritebackDirty      5230284                       # Transaction distribution
system.membus.trans_dist::CleanEvict              390                       # Transaction distribution
system.membus.trans_dist::ReadExReq           5263023                       # Transaction distribution
system.membus.trans_dist::ReadExResp          5263023                       # Transaction distribution
system.membus.trans_dist::ReadSharedReq           868                       # Transaction distribution
system.membus.pkt_count_system.l2.mem_side_port::system.mem_ctrls.port     15758456                       # Packet count per connected requestor and responder (bytes)
system.membus.pkt_count::total               15758456                       # Packet count per connected requestor and responder (bytes)
system.membus.pkt_size_system.l2.mem_side_port::system.mem_ctrls.port    671627200                       # Cumulative packet size per connected requestor and responder (bytes)
system.membus.pkt_size::total               671627200                       # Cumulative packet size per connected requestor and responder (bytes)
system.membus.snoops                                0                       # Total snoops (count)
system.membus.snoopTraffic                          0                       # Total snoop traffic (bytes)
system.membus.snoop_fanout::samples           5263891                       # Request fanout histogram
system.membus.snoop_fanout::mean                    0                       # Request fanout histogram
system.membus.snoop_fanout::stdev                   0                       # Request fanout histogram
system.membus.snoop_fanout::underflows              0      0.00%      0.00% # Request fanout histogram
system.membus.snoop_fanout::0                 5263891    100.00%    100.00% # Request fanout histogram
system.membus.snoop_fanout::1                       0      0.00%    100.00% # Request fanout histogram
system.membus.snoop_fanout::overflows               0      0.00%    100.00% # Request fanout histogram
system.membus.snoop_fanout::min_value               0                       # Request fanout histogram
system.membus.snoop_fanout::max_value               0                       # Request fanout histogram
system.membus.snoop_fanout::total             5263891                       # Request fanout histogram
system.membus.power_state.pwrStateResidencyTicks::UNDEFINED 513825713500                       # Cumulative time (in ticks) in various power states
system.membus.reqLayer0.occupancy         31438302000                       # Layer occupancy (ticks)
system.membus.reqLayer0.utilization               6.1                       # Layer utilization (%)
system.membus.respLayer1.occupancy        27686380250                       # Layer occupancy (ticks)
system.membus.respLayer1.utilization              5.4                       # Layer utilization (%)
system.tol2bus.trans_dist::ReadResp              1214                       # Transaction distribution
system.tol2bus.trans_dist::WritebackDirty     10493443                       # Transaction distribution
system.tol2bus.trans_dist::WritebackClean          202                       # Transaction distribution
system.tol2bus.trans_dist::CleanEvict            1291                       # Transaction distribution
system.tol2bus.trans_dist::ReadExReq          5263210                       # Transaction distribution
system.tol2bus.trans_dist::ReadExResp         5263209                       # Transaction distribution
system.tol2bus.trans_dist::ReadCleanReq           640                       # Transaction distribution
system.tol2bus.trans_dist::ReadSharedReq          574                       # Transaction distribution
system.tol2bus.pkt_count_system.cpu.icache.mem_side_port::system.l2.cpu_side_port         1482                       # Packet count per connected requestor and responder (bytes)
system.tol2bus.pkt_count_system.cpu.dcache.mem_side_port::system.l2.cpu_side_port     15791094                       # Packet count per connected requestor and responder (bytes)
system.tol2bus.pkt_count::total              15792576                       # Packet count per connected requestor and responder (bytes)
system.tol2bus.pkt_size_system.cpu.icache.mem_side_port::system.l2.cpu_side_port        53888                       # Cumulative packet size per connected requestor and responder (bytes)
system.tol2bus.pkt_size_system.cpu.dcache.mem_side_port::system.l2.cpu_side_port    673724288                       # Cumulative packet size per connected requestor and responder (bytes)
system.tol2bus.pkt_size::total              673778176                       # Cumulative packet size per connected requestor and responder (bytes)
system.tol2bus.snoops                         5231207                       # Total snoops (count)
system.tol2bus.snoopTraffic                 334738176                       # Total snoop traffic (bytes)
system.tol2bus.snoop_fanout::samples         10495631                       # Request fanout histogram
system.tol2bus.snoop_fanout::mean            0.000056                       # Request fanout histogram
system.tol2bus.snoop_fanout::stdev           0.007497                       # Request fanout histogram
system.tol2bus.snoop_fanout::underflows             0      0.00%      0.00% # Request fanout histogram
system.tol2bus.snoop_fanout::0               10495041     99.99%     99.99% # Request fanout histogram
system.tol2bus.snoop_fanout::1                    590      0.01%    100.00% # Request fanout histogram
system.tol2bus.snoop_fanout::2                      0      0.00%    100.00% # Request fanout histogram
system.tol2bus.snoop_fanout::overflows              0      0.00%    100.00% # Request fanout histogram
system.tol2bus.snoop_fanout::min_value              0                       # Request fanout histogram
system.tol2bus.snoop_fanout::max_value              1                       # Request fanout histogram
system.tol2bus.snoop_fanout::total           10495631                       # Request fanout histogram
system.tol2bus.power_state.pwrStateResidencyTicks::UNDEFINED 513825713500                       # Cumulative time (in ticks) in various power states
system.tol2bus.reqLayer0.occupancy        10527437500                       # Layer occupancy (ticks)
system.tol2bus.reqLayer0.utilization              2.0                       # Layer utilization (%)
system.tol2bus.respLayer0.occupancy            960000                       # Layer occupancy (ticks)
system.tol2bus.respLayer0.utilization             0.0                       # Layer utilization (%)
system.tol2bus.respLayer1.occupancy        7895677494                       # Layer occupancy (ticks)
system.tol2bus.respLayer1.utilization             1.5                       # Layer utilization (%)
system.voltage_domain.voltage                       1                       # Voltage in Volts

---------- End Simulation Statistics   ----------
