
---------- Begin Simulation Statistics ----------
final_tick                                87038996000                       # Number of ticks from beginning of simulation (restored from checkpoints and never reset)
host_inst_rate                                 442635                       # Simulator instruction rate (inst/s)
host_mem_usage                                 666260                       # Number of bytes of host memory used
host_op_rate                                   443504                       # Simulator op (including micro ops) rate (op/s)
host_seconds                                   225.92                       # Real time elapsed on the host
host_tick_rate                              385264596                       # Simulator tick rate (ticks/s)
sim_freq                                 1000000000000                       # Frequency of simulated ticks
sim_insts                                   100000001                       # Number of instructions simulated
sim_ops                                     100196356                       # Number of ops (including micro ops) simulated
sim_seconds                                  0.087039                       # Number of seconds simulated
sim_ticks                                 87038996000                       # Number of ticks simulated
system.cpu.committedInsts                   100000001                       # Number of instructions committed
system.cpu.committedOps                     100196356                       # Number of ops (including micro ops) committed
system.cpu.cpi                               1.740780                       # CPI: cycles per instruction
system.cpu.discardedOps                        189559                       # Number of ops (including micro ops) which were discarded before commit
system.cpu.idleCycles                        40902039                       # Total number of cycles that the object has spent stopped
system.cpu.ipc                               0.574455                       # IPC: instructions per cycle
system.cpu.numCycles                        174077992                       # number of cpu cycles simulated
system.cpu.numFetchSuspends                         0                       # Number of times Execute suspended instruction fetching
system.cpu.numWorkItemsCompleted                    0                       # number of work items this cpu completed
system.cpu.numWorkItemsStarted                      0                       # number of work items this cpu started
system.cpu.op_class_0::No_OpClass                   0      0.00%      0.00% # Class of committed instruction
system.cpu.op_class_0::IntAlu                46526863     46.44%     46.44% # Class of committed instruction
system.cpu.op_class_0::IntMult                  20723      0.02%     46.46% # Class of committed instruction
system.cpu.op_class_0::IntDiv                       0      0.00%     46.46% # Class of committed instruction
system.cpu.op_class_0::FloatAdd                     0      0.00%     46.46% # Class of committed instruction
system.cpu.op_class_0::FloatCmp                     0      0.00%     46.46% # Class of committed instruction
system.cpu.op_class_0::FloatCvt                     0      0.00%     46.46% # Class of committed instruction
system.cpu.op_class_0::FloatMult                    0      0.00%     46.46% # Class of committed instruction
system.cpu.op_class_0::FloatMultAcc                 0      0.00%     46.46% # Class of committed instruction
system.cpu.op_class_0::FloatDiv                     0      0.00%     46.46% # Class of committed instruction
system.cpu.op_class_0::FloatMisc                    0      0.00%     46.46% # Class of committed instruction
system.cpu.op_class_0::FloatSqrt                    0      0.00%     46.46% # Class of committed instruction
system.cpu.op_class_0::SimdAdd                      0      0.00%     46.46% # Class of committed instruction
system.cpu.op_class_0::SimdAddAcc                   0      0.00%     46.46% # Class of committed instruction
system.cpu.op_class_0::SimdAlu                      0      0.00%     46.46% # Class of committed instruction
system.cpu.op_class_0::SimdCmp                      0      0.00%     46.46% # Class of committed instruction
system.cpu.op_class_0::SimdCvt                      0      0.00%     46.46% # Class of committed instruction
system.cpu.op_class_0::SimdMisc                     0      0.00%     46.46% # Class of committed instruction
system.cpu.op_class_0::SimdMult                     0      0.00%     46.46% # Class of committed instruction
system.cpu.op_class_0::SimdMultAcc                  0      0.00%     46.46% # Class of committed instruction
system.cpu.op_class_0::SimdShift                    0      0.00%     46.46% # Class of committed instruction
system.cpu.op_class_0::SimdShiftAcc                 0      0.00%     46.46% # Class of committed instruction
system.cpu.op_class_0::SimdDiv                      0      0.00%     46.46% # Class of committed instruction
system.cpu.op_class_0::SimdSqrt                     0      0.00%     46.46% # Class of committed instruction
system.cpu.op_class_0::SimdFloatAdd                 0      0.00%     46.46% # Class of committed instruction
system.cpu.op_class_0::SimdFloatAlu                 0      0.00%     46.46% # Class of committed instruction
system.cpu.op_class_0::SimdFloatCmp                 0      0.00%     46.46% # Class of committed instruction
system.cpu.op_class_0::SimdFloatCvt                 0      0.00%     46.46% # Class of committed instruction
system.cpu.op_class_0::SimdFloatDiv                 0      0.00%     46.46% # Class of committed instruction
system.cpu.op_class_0::SimdFloatMisc               18      0.00%     46.46% # Class of committed instruction
system.cpu.op_class_0::SimdFloatMult                0      0.00%     46.46% # Class of committed instruction
system.cpu.op_class_0::SimdFloatMultAcc             0      0.00%     46.46% # Class of committed instruction
system.cpu.op_class_0::SimdFloatSqrt                0      0.00%     46.46% # Class of committed instruction
system.cpu.op_class_0::SimdReduceAdd                0      0.00%     46.46% # Class of committed instruction
system.cpu.op_class_0::SimdReduceAlu                0      0.00%     46.46% # Class of committed instruction
system.cpu.op_class_0::SimdReduceCmp                0      0.00%     46.46% # Class of committed instruction
system.cpu.op_class_0::SimdFloatReduceAdd            0      0.00%     46.46% # Class of committed instruction
system.cpu.op_class_0::SimdFloatReduceCmp            0      0.00%     46.46% # Class of committed instruction
system.cpu.op_class_0::SimdAes                      0      0.00%     46.46% # Class of committed instruction
system.cpu.op_class_0::SimdAesMix                   0      0.00%     46.46% # Class of committed instruction
system.cpu.op_class_0::SimdSha1Hash                 0      0.00%     46.46% # Class of committed instruction
system.cpu.op_class_0::SimdSha1Hash2                0      0.00%     46.46% # Class of committed instruction
system.cpu.op_class_0::SimdSha256Hash               0      0.00%     46.46% # Class of committed instruction
system.cpu.op_class_0::SimdSha256Hash2              0      0.00%     46.46% # Class of committed instruction
system.cpu.op_class_0::SimdShaSigma2                0      0.00%     46.46% # Class of committed instruction
system.cpu.op_class_0::SimdShaSigma3                0      0.00%     46.46% # Class of committed instruction
system.cpu.op_class_0::SimdPredAlu                  0      0.00%     46.46% # Class of committed instruction
system.cpu.op_class_0::MemRead               42690537     42.61%     89.06% # Class of committed instruction
system.cpu.op_class_0::MemWrite              10958215     10.94%    100.00% # Class of committed instruction
system.cpu.op_class_0::FloatMemRead                 0      0.00%    100.00% # Class of committed instruction
system.cpu.op_class_0::FloatMemWrite                0      0.00%    100.00% # Class of committed instruction
system.cpu.op_class_0::IprAccess                    0      0.00%    100.00% # Class of committed instruction
system.cpu.op_class_0::InstPrefetch                 0      0.00%    100.00% # Class of committed instruction
system.cpu.op_class_0::total                100196356                       # Class of committed instruction
system.cpu.tickCycles                       133175953                       # Number of cycles that the object actually ticked
system.cpu.workload.numSyscalls                    85                       # Number of system calls
system.membus.snoop_filter.hit_multi_requests            0                       # Number of requests hitting in the snoop filter with multiple (>1) holders of the requested data.
system.membus.snoop_filter.hit_multi_snoops            0                       # Number of snoops hitting in the snoop filter with multiple (>1) holders of the requested data.
system.membus.snoop_filter.hit_single_requests       168713                       # Number of requests hitting in the snoop filter with a single holder of the requested data.
system.membus.snoop_filter.hit_single_snoops            0                       # Number of snoops hitting in the snoop filter with a single holder of the requested data.
system.membus.snoop_filter.tot_requests        370522                       # Total number of requests made to the snoop filter.
system.membus.snoop_filter.tot_snoops               0                       # Total number of snoops made to the snoop filter.
system.tol2bus.snoop_filter.hit_multi_requests          687                       # Number of requests hitting in the snoop filter with multiple (>1) holders of the requested data.
system.tol2bus.snoop_filter.hit_multi_snoops            0                       # Number of snoops hitting in the snoop filter with multiple (>1) holders of the requested data.
system.tol2bus.snoop_filter.hit_single_requests      1072736                       # Number of requests hitting in the snoop filter with a single holder of the requested data.
system.tol2bus.snoop_filter.hit_single_snoops          468                       # Number of snoops hitting in the snoop filter with a single holder of the requested data.
system.tol2bus.snoop_filter.tot_requests      2146166                       # Total number of requests made to the snoop filter.
system.tol2bus.snoop_filter.tot_snoops            468                       # Total number of snoops made to the snoop filter.
system.clk_domain.clock                          1000                       # Clock period in ticks
system.cpu.branchPred.lookups                 4485684                       # Number of BP lookups
system.cpu.branchPred.condPredicted           3735360                       # Number of conditional branches predicted
system.cpu.branchPred.condIncorrect             81004                       # Number of conditional branches incorrect
system.cpu.branchPred.BTBLookups              2103837                       # Number of BTB lookups
system.cpu.branchPred.BTBHits                 2101827                       # Number of BTB hits
system.cpu.branchPred.BTBHitPct             99.904460                       # BTB Hit Percentage
system.cpu.branchPred.RASUsed                   65382                       # Number of times the RAS was used to get a target.
system.cpu.branchPred.RASIncorrect                 14                       # Number of incorrect RAS predictions.
system.cpu.branchPred.indirectLookups             700                       # Number of indirect predictor lookups.
system.cpu.branchPred.indirectHits                289                       # Number of indirect target hits.
system.cpu.branchPred.indirectMisses              411                       # Number of indirect misses.
system.cpu.branchPred.indirectMispredicted          171                       # Number of mispredicted indirect branches.
system.cpu.dcache.demand_hits::.cpu.data     50940651                       # number of demand (read+write) hits
system.cpu.dcache.demand_hits::total         50940651                       # number of demand (read+write) hits
system.cpu.dcache.overall_hits::.cpu.data     50940903                       # number of overall hits
system.cpu.dcache.overall_hits::total        50940903                       # number of overall hits
system.cpu.dcache.demand_misses::.cpu.data      1128079                       # number of demand (read+write) misses
system.cpu.dcache.demand_misses::total        1128079                       # number of demand (read+write) misses
system.cpu.dcache.overall_misses::.cpu.data      1136246                       # number of overall misses
system.cpu.dcache.overall_misses::total       1136246                       # number of overall misses
system.cpu.dcache.demand_miss_latency::.cpu.data  29716360500                       # number of demand (read+write) miss cycles
system.cpu.dcache.demand_miss_latency::total  29716360500                       # number of demand (read+write) miss cycles
system.cpu.dcache.overall_miss_latency::.cpu.data  29716360500                       # number of overall miss cycles
system.cpu.dcache.overall_miss_latency::total  29716360500                       # number of overall miss cycles
system.cpu.dcache.demand_accesses::.cpu.data     52068730                       # number of demand (read+write) accesses
system.cpu.dcache.demand_accesses::total     52068730                       # number of demand (read+write) accesses
system.cpu.dcache.overall_accesses::.cpu.data     52077149                       # number of overall (read+write) accesses
system.cpu.dcache.overall_accesses::total     52077149                       # number of overall (read+write) accesses
system.cpu.dcache.demand_miss_rate::.cpu.data     0.021665                       # miss rate for demand accesses
system.cpu.dcache.demand_miss_rate::total     0.021665                       # miss rate for demand accesses
system.cpu.dcache.overall_miss_rate::.cpu.data     0.021819                       # miss rate for overall accesses
system.cpu.dcache.overall_miss_rate::total     0.021819                       # miss rate for overall accesses
system.cpu.dcache.demand_avg_miss_latency::.cpu.data 26342.446318                       # average overall miss latency
system.cpu.dcache.demand_avg_miss_latency::total 26342.446318                       # average overall miss latency
system.cpu.dcache.overall_avg_miss_latency::.cpu.data 26153.104609                       # average overall miss latency
system.cpu.dcache.overall_avg_miss_latency::total 26153.104609                       # average overall miss latency
system.cpu.dcache.blocked_cycles::no_mshrs       215447                       # number of cycles access was blocked
system.cpu.dcache.blocked_cycles::no_targets            0                       # number of cycles access was blocked
system.cpu.dcache.blocked::no_mshrs              4984                       # number of cycles access was blocked
system.cpu.dcache.blocked::no_targets               0                       # number of cycles access was blocked
system.cpu.dcache.avg_blocked_cycles::no_mshrs    43.227729                       # average number of cycles each access was blocked
system.cpu.dcache.avg_blocked_cycles::no_targets          nan                       # average number of cycles each access was blocked
system.cpu.dcache.writebacks::.writebacks       989176                       # number of writebacks
system.cpu.dcache.writebacks::total            989176                       # number of writebacks
system.cpu.dcache.demand_mshr_hits::.cpu.data        63584                       # number of demand (read+write) MSHR hits
system.cpu.dcache.demand_mshr_hits::total        63584                       # number of demand (read+write) MSHR hits
system.cpu.dcache.overall_mshr_hits::.cpu.data        63584                       # number of overall MSHR hits
system.cpu.dcache.overall_mshr_hits::total        63584                       # number of overall MSHR hits
system.cpu.dcache.demand_mshr_misses::.cpu.data      1064495                       # number of demand (read+write) MSHR misses
system.cpu.dcache.demand_mshr_misses::total      1064495                       # number of demand (read+write) MSHR misses
system.cpu.dcache.overall_mshr_misses::.cpu.data      1072658                       # number of overall MSHR misses
system.cpu.dcache.overall_mshr_misses::total      1072658                       # number of overall MSHR misses
system.cpu.dcache.demand_mshr_miss_latency::.cpu.data  27073906000                       # number of demand (read+write) MSHR miss cycles
system.cpu.dcache.demand_mshr_miss_latency::total  27073906000                       # number of demand (read+write) MSHR miss cycles
system.cpu.dcache.overall_mshr_miss_latency::.cpu.data  27754850999                       # number of overall MSHR miss cycles
system.cpu.dcache.overall_mshr_miss_latency::total  27754850999                       # number of overall MSHR miss cycles
system.cpu.dcache.demand_mshr_miss_rate::.cpu.data     0.020444                       # mshr miss rate for demand accesses
system.cpu.dcache.demand_mshr_miss_rate::total     0.020444                       # mshr miss rate for demand accesses
system.cpu.dcache.overall_mshr_miss_rate::.cpu.data     0.020597                       # mshr miss rate for overall accesses
system.cpu.dcache.overall_mshr_miss_rate::total     0.020597                       # mshr miss rate for overall accesses
system.cpu.dcache.demand_avg_mshr_miss_latency::.cpu.data 25433.568030                       # average overall mshr miss latency
system.cpu.dcache.demand_avg_mshr_miss_latency::total 25433.568030                       # average overall mshr miss latency
system.cpu.dcache.overall_avg_mshr_miss_latency::.cpu.data 25874.837086                       # average overall mshr miss latency
system.cpu.dcache.overall_avg_mshr_miss_latency::total 25874.837086                       # average overall mshr miss latency
system.cpu.dcache.replacements                1072402                       # number of replacements
system.cpu.dcache.ReadReq_hits::.cpu.data     40459984                       # number of ReadReq hits
system.cpu.dcache.ReadReq_hits::total        40459984                       # number of ReadReq hits
system.cpu.dcache.ReadReq_misses::.cpu.data       659664                       # number of ReadReq misses
system.cpu.dcache.ReadReq_misses::total        659664                       # number of ReadReq misses
system.cpu.dcache.ReadReq_miss_latency::.cpu.data  12530246000                       # number of ReadReq miss cycles
system.cpu.dcache.ReadReq_miss_latency::total  12530246000                       # number of ReadReq miss cycles
system.cpu.dcache.ReadReq_accesses::.cpu.data     41119648                       # number of ReadReq accesses(hits+misses)
system.cpu.dcache.ReadReq_accesses::total     41119648                       # number of ReadReq accesses(hits+misses)
system.cpu.dcache.ReadReq_miss_rate::.cpu.data     0.016043                       # miss rate for ReadReq accesses
system.cpu.dcache.ReadReq_miss_rate::total     0.016043                       # miss rate for ReadReq accesses
system.cpu.dcache.ReadReq_avg_miss_latency::.cpu.data 18994.891339                       # average ReadReq miss latency
system.cpu.dcache.ReadReq_avg_miss_latency::total 18994.891339                       # average ReadReq miss latency
system.cpu.dcache.ReadReq_mshr_hits::.cpu.data          506                       # number of ReadReq MSHR hits
system.cpu.dcache.ReadReq_mshr_hits::total          506                       # number of ReadReq MSHR hits
system.cpu.dcache.ReadReq_mshr_misses::.cpu.data       659158                       # number of ReadReq MSHR misses
system.cpu.dcache.ReadReq_mshr_misses::total       659158                       # number of ReadReq MSHR misses
system.cpu.dcache.ReadReq_mshr_miss_latency::.cpu.data  11853377500                       # number of ReadReq MSHR miss cycles
system.cpu.dcache.ReadReq_mshr_miss_latency::total  11853377500                       # number of ReadReq MSHR miss cycles
system.cpu.dcache.ReadReq_mshr_miss_rate::.cpu.data     0.016030                       # mshr miss rate for ReadReq accesses
system.cpu.dcache.ReadReq_mshr_miss_rate::total     0.016030                       # mshr miss rate for ReadReq accesses
system.cpu.dcache.ReadReq_avg_mshr_miss_latency::.cpu.data 17982.604322                       # average ReadReq mshr miss latency
system.cpu.dcache.ReadReq_avg_mshr_miss_latency::total 17982.604322                       # average ReadReq mshr miss latency
system.cpu.dcache.WriteReq_hits::.cpu.data     10480667                       # number of WriteReq hits
system.cpu.dcache.WriteReq_hits::total       10480667                       # number of WriteReq hits
system.cpu.dcache.WriteReq_misses::.cpu.data       468415                       # number of WriteReq misses
system.cpu.dcache.WriteReq_misses::total       468415                       # number of WriteReq misses
system.cpu.dcache.WriteReq_miss_latency::.cpu.data  17186114500                       # number of WriteReq miss cycles
system.cpu.dcache.WriteReq_miss_latency::total  17186114500                       # number of WriteReq miss cycles
system.cpu.dcache.WriteReq_accesses::.cpu.data     10949082                       # number of WriteReq accesses(hits+misses)
system.cpu.dcache.WriteReq_accesses::total     10949082                       # number of WriteReq accesses(hits+misses)
system.cpu.dcache.WriteReq_miss_rate::.cpu.data     0.042781                       # miss rate for WriteReq accesses
system.cpu.dcache.WriteReq_miss_rate::total     0.042781                       # miss rate for WriteReq accesses
system.cpu.dcache.WriteReq_avg_miss_latency::.cpu.data 36689.932005                       # average WriteReq miss latency
system.cpu.dcache.WriteReq_avg_miss_latency::total 36689.932005                       # average WriteReq miss latency
system.cpu.dcache.WriteReq_mshr_hits::.cpu.data        63078                       # number of WriteReq MSHR hits
system.cpu.dcache.WriteReq_mshr_hits::total        63078                       # number of WriteReq MSHR hits
system.cpu.dcache.WriteReq_mshr_misses::.cpu.data       405337                       # number of WriteReq MSHR misses
system.cpu.dcache.WriteReq_mshr_misses::total       405337                       # number of WriteReq MSHR misses
system.cpu.dcache.WriteReq_mshr_miss_latency::.cpu.data  15220528500                       # number of WriteReq MSHR miss cycles
system.cpu.dcache.WriteReq_mshr_miss_latency::total  15220528500                       # number of WriteReq MSHR miss cycles
system.cpu.dcache.WriteReq_mshr_miss_rate::.cpu.data     0.037020                       # mshr miss rate for WriteReq accesses
system.cpu.dcache.WriteReq_mshr_miss_rate::total     0.037020                       # mshr miss rate for WriteReq accesses
system.cpu.dcache.WriteReq_avg_mshr_miss_latency::.cpu.data 37550.306288                       # average WriteReq mshr miss latency
system.cpu.dcache.WriteReq_avg_mshr_miss_latency::total 37550.306288                       # average WriteReq mshr miss latency
system.cpu.dcache.SoftPFReq_hits::.cpu.data          252                       # number of SoftPFReq hits
system.cpu.dcache.SoftPFReq_hits::total           252                       # number of SoftPFReq hits
system.cpu.dcache.SoftPFReq_misses::.cpu.data         8167                       # number of SoftPFReq misses
system.cpu.dcache.SoftPFReq_misses::total         8167                       # number of SoftPFReq misses
system.cpu.dcache.SoftPFReq_accesses::.cpu.data         8419                       # number of SoftPFReq accesses(hits+misses)
system.cpu.dcache.SoftPFReq_accesses::total         8419                       # number of SoftPFReq accesses(hits+misses)
system.cpu.dcache.SoftPFReq_miss_rate::.cpu.data     0.970068                       # miss rate for SoftPFReq accesses
system.cpu.dcache.SoftPFReq_miss_rate::total     0.970068                       # miss rate for SoftPFReq accesses
system.cpu.dcache.SoftPFReq_mshr_misses::.cpu.data         8163                       # number of SoftPFReq MSHR misses
system.cpu.dcache.SoftPFReq_mshr_misses::total         8163                       # number of SoftPFReq MSHR misses
system.cpu.dcache.SoftPFReq_mshr_miss_latency::.cpu.data    680944999                       # number of SoftPFReq MSHR miss cycles
system.cpu.dcache.SoftPFReq_mshr_miss_latency::total    680944999                       # number of SoftPFReq MSHR miss cycles
system.cpu.dcache.SoftPFReq_mshr_miss_rate::.cpu.data     0.969593                       # mshr miss rate for SoftPFReq accesses
system.cpu.dcache.SoftPFReq_mshr_miss_rate::total     0.969593                       # mshr miss rate for SoftPFReq accesses
system.cpu.dcache.SoftPFReq_avg_mshr_miss_latency::.cpu.data 83418.473478                       # average SoftPFReq mshr miss latency
system.cpu.dcache.SoftPFReq_avg_mshr_miss_latency::total 83418.473478                       # average SoftPFReq mshr miss latency
system.cpu.dcache.LoadLockedReq_hits::.cpu.data           38                       # number of LoadLockedReq hits
system.cpu.dcache.LoadLockedReq_hits::total           38                       # number of LoadLockedReq hits
system.cpu.dcache.LoadLockedReq_accesses::.cpu.data           38                       # number of LoadLockedReq accesses(hits+misses)
system.cpu.dcache.LoadLockedReq_accesses::total           38                       # number of LoadLockedReq accesses(hits+misses)
system.cpu.dcache.StoreCondReq_hits::.cpu.data           38                       # number of StoreCondReq hits
system.cpu.dcache.StoreCondReq_hits::total           38                       # number of StoreCondReq hits
system.cpu.dcache.StoreCondReq_accesses::.cpu.data           38                       # number of StoreCondReq accesses(hits+misses)
system.cpu.dcache.StoreCondReq_accesses::total           38                       # number of StoreCondReq accesses(hits+misses)
system.cpu.dcache.power_state.pwrStateResidencyTicks::UNDEFINED  87038996000                       # Cumulative time (in ticks) in various power states
system.cpu.dcache.tags.tagsinuse           253.848103                       # Cycle average of tags in use
system.cpu.dcache.tags.total_refs            52013637                       # Total number of references to valid blocks.
system.cpu.dcache.tags.sampled_refs           1072658                       # Sample count of references to valid blocks.
system.cpu.dcache.tags.avg_refs             48.490420                       # Average number of references to valid blocks.
system.cpu.dcache.tags.warmup_cycle            176500                       # Cycle when the warmup percentage was hit.
system.cpu.dcache.tags.occ_blocks::.cpu.data   253.848103                       # Average occupied blocks per requestor
system.cpu.dcache.tags.occ_percent::.cpu.data     0.991594                       # Average percentage of cache occupancy
system.cpu.dcache.tags.occ_percent::total     0.991594                       # Average percentage of cache occupancy
system.cpu.dcache.tags.occ_task_id_blocks::1024          256                       # Occupied blocks per task id
system.cpu.dcache.tags.age_task_id_blocks_1024::0           72                       # Occupied blocks per task id
system.cpu.dcache.tags.age_task_id_blocks_1024::1          177                       # Occupied blocks per task id
system.cpu.dcache.tags.age_task_id_blocks_1024::2            7                       # Occupied blocks per task id
system.cpu.dcache.tags.occ_task_id_percent::1024            1                       # Percentage of cache occupancy per task id
system.cpu.dcache.tags.tag_accesses         105227108                       # Number of tag accesses
system.cpu.dcache.tags.data_accesses        105227108                       # Number of data accesses
system.cpu.dcache.tags.power_state.pwrStateResidencyTicks::UNDEFINED  87038996000                       # Cumulative time (in ticks) in various power states
system.cpu.dtb.instHits                             0                       # ITB inst hits
system.cpu.dtb.instMisses                           0                       # ITB inst misses
system.cpu.dtb.readHits                             0                       # DTB read hits
system.cpu.dtb.readMisses                           0                       # DTB read misses
system.cpu.dtb.writeHits                            0                       # DTB write hits
system.cpu.dtb.writeMisses                          0                       # DTB write misses
system.cpu.dtb.inserts                              0                       # Number of times an entry is inserted into the TLB
system.cpu.dtb.flushTlb                             0                       # Number of times complete TLB was flushed
system.cpu.dtb.flushTlbMva                          0                       # Number of times TLB was flushed by MVA
system.cpu.dtb.flushTlbMvaAsid                      0                       # Number of times TLB was flushed by MVA & ASID
system.cpu.dtb.flushTlbAsid                         0                       # Number of times TLB was flushed by ASID
system.cpu.dtb.flushedEntries                       0                       # Number of entries that have been flushed from TLB
system.cpu.dtb.alignFaults                          0                       # Number of TLB faults due to alignment restrictions
system.cpu.dtb.prefetchFaults                       0                       # Number of TLB faults due to prefetch
system.cpu.dtb.domainFaults                         0                       # Number of TLB faults due to domain restrictions
system.cpu.dtb.permsFaults                          0                       # Number of TLB faults due to permissions restrictions
system.cpu.dtb.readAccesses                         0                       # DTB read accesses
system.cpu.dtb.writeAccesses                        0                       # DTB write accesses
system.cpu.dtb.instAccesses                         0                       # ITB inst accesses
system.cpu.dtb.hits                                 0                       # Total TLB (inst and data) hits
system.cpu.dtb.misses                               0                       # Total TLB (inst and data) misses
system.cpu.dtb.accesses                             0                       # Total TLB (inst and data) accesses
system.cpu.dtb.stage2_mmu.stage2_tlb.instHits            0                       # ITB inst hits
system.cpu.dtb.stage2_mmu.stage2_tlb.instMisses            0                       # ITB inst misses
system.cpu.dtb.stage2_mmu.stage2_tlb.readHits            0                       # DTB read hits
system.cpu.dtb.stage2_mmu.stage2_tlb.readMisses            0                       # DTB read misses
system.cpu.dtb.stage2_mmu.stage2_tlb.writeHits            0                       # DTB write hits
system.cpu.dtb.stage2_mmu.stage2_tlb.writeMisses            0                       # DTB write misses
system.cpu.dtb.stage2_mmu.stage2_tlb.inserts            0                       # Number of times an entry is inserted into the TLB
system.cpu.dtb.stage2_mmu.stage2_tlb.flushTlb            0                       # Number of times complete TLB was flushed
system.cpu.dtb.stage2_mmu.stage2_tlb.flushTlbMva            0                       # Number of times TLB was flushed by MVA
system.cpu.dtb.stage2_mmu.stage2_tlb.flushTlbMvaAsid            0                       # Number of times TLB was flushed by MVA & ASID
system.cpu.dtb.stage2_mmu.stage2_tlb.flushTlbAsid            0                       # Number of times TLB was flushed by ASID
system.cpu.dtb.stage2_mmu.stage2_tlb.flushedEntries            0                       # Number of entries that have been flushed from TLB
system.cpu.dtb.stage2_mmu.stage2_tlb.alignFaults            0                       # Number of TLB faults due to alignment restrictions
system.cpu.dtb.stage2_mmu.stage2_tlb.prefetchFaults            0                       # Number of TLB faults due to prefetch
system.cpu.dtb.stage2_mmu.stage2_tlb.domainFaults            0                       # Number of TLB faults due to domain restrictions
system.cpu.dtb.stage2_mmu.stage2_tlb.permsFaults            0                       # Number of TLB faults due to permissions restrictions
system.cpu.dtb.stage2_mmu.stage2_tlb.readAccesses            0                       # DTB read accesses
system.cpu.dtb.stage2_mmu.stage2_tlb.writeAccesses            0                       # DTB write accesses
system.cpu.dtb.stage2_mmu.stage2_tlb.instAccesses            0                       # ITB inst accesses
system.cpu.dtb.stage2_mmu.stage2_tlb.hits            0                       # Total TLB (inst and data) hits
system.cpu.dtb.stage2_mmu.stage2_tlb.misses            0                       # Total TLB (inst and data) misses
system.cpu.dtb.stage2_mmu.stage2_tlb.accesses            0                       # Total TLB (inst and data) accesses
system.cpu.dtb.stage2_mmu.stage2_tlb.walker.walks            0                       # Table walker walks requested
system.cpu.dtb.stage2_mmu.stage2_tlb.walker.requestOrigin_Requested::Data            0                       # Table walker requests started/completed, data/inst
system.cpu.dtb.stage2_mmu.stage2_tlb.walker.requestOrigin_Requested::Inst            0                       # Table walker requests started/completed, data/inst
system.cpu.dtb.stage2_mmu.stage2_tlb.walker.requestOrigin_Requested::total            0                       # Table walker requests started/completed, data/inst
system.cpu.dtb.stage2_mmu.stage2_tlb.walker.requestOrigin_Completed::Data            0                       # Table walker requests started/completed, data/inst
system.cpu.dtb.stage2_mmu.stage2_tlb.walker.requestOrigin_Completed::Inst            0                       # Table walker requests started/completed, data/inst
system.cpu.dtb.stage2_mmu.stage2_tlb.walker.requestOrigin_Completed::total            0                       # Table walker requests started/completed, data/inst
system.cpu.dtb.stage2_mmu.stage2_tlb.walker.requestOrigin::total            0                       # Table walker requests started/completed, data/inst
system.cpu.dtb.stage2_mmu.stage2_tlb.walker.power_state.pwrStateResidencyTicks::UNDEFINED  87038996000                       # Cumulative time (in ticks) in various power states
system.cpu.dtb.walker.walks                         0                       # Table walker walks requested
system.cpu.dtb.walker.requestOrigin_Requested::Data            0                       # Table walker requests started/completed, data/inst
system.cpu.dtb.walker.requestOrigin_Requested::Inst            0                       # Table walker requests started/completed, data/inst
system.cpu.dtb.walker.requestOrigin_Requested::total            0                       # Table walker requests started/completed, data/inst
system.cpu.dtb.walker.requestOrigin_Completed::Data            0                       # Table walker requests started/completed, data/inst
system.cpu.dtb.walker.requestOrigin_Completed::Inst            0                       # Table walker requests started/completed, data/inst
system.cpu.dtb.walker.requestOrigin_Completed::total            0                       # Table walker requests started/completed, data/inst
system.cpu.dtb.walker.requestOrigin::total            0                       # Table walker requests started/completed, data/inst
system.cpu.dtb.walker.power_state.pwrStateResidencyTicks::UNDEFINED  87038996000                       # Cumulative time (in ticks) in various power states
system.cpu.fetch2.intInstructions            42685979                       # Number of integer instructions successfully decoded
system.cpu.fetch2.fpInstructions                    0                       # Number of floating point instructions successfully decoded
system.cpu.fetch2.vecInstructions                   0                       # Number of SIMD instructions successfully decoded
system.cpu.fetch2.loadInstructions           43475258                       # Number of memory load instructions successfully decoded
system.cpu.fetch2.storeInstructions          11025047                       # Number of memory store instructions successfully decoded
system.cpu.fetch2.amoInstructions                   0                       # Number of memory atomic instructions successfully decoded
system.cpu.icache.demand_hits::.cpu.inst     10278312                       # number of demand (read+write) hits
system.cpu.icache.demand_hits::total         10278312                       # number of demand (read+write) hits
system.cpu.icache.overall_hits::.cpu.inst     10278312                       # number of overall hits
system.cpu.icache.overall_hits::total        10278312                       # number of overall hits
system.cpu.icache.demand_misses::.cpu.inst          773                       # number of demand (read+write) misses
system.cpu.icache.demand_misses::total            773                       # number of demand (read+write) misses
system.cpu.icache.overall_misses::.cpu.inst          773                       # number of overall misses
system.cpu.icache.overall_misses::total           773                       # number of overall misses
system.cpu.icache.demand_miss_latency::.cpu.inst     56067000                       # number of demand (read+write) miss cycles
system.cpu.icache.demand_miss_latency::total     56067000                       # number of demand (read+write) miss cycles
system.cpu.icache.overall_miss_latency::.cpu.inst     56067000                       # number of overall miss cycles
system.cpu.icache.overall_miss_latency::total     56067000                       # number of overall miss cycles
system.cpu.icache.demand_accesses::.cpu.inst     10279085                       # number of demand (read+write) accesses
system.cpu.icache.demand_accesses::total     10279085                       # number of demand (read+write) accesses
system.cpu.icache.overall_accesses::.cpu.inst     10279085                       # number of overall (read+write) accesses
system.cpu.icache.overall_accesses::total     10279085                       # number of overall (read+write) accesses
system.cpu.icache.demand_miss_rate::.cpu.inst     0.000075                       # miss rate for demand accesses
system.cpu.icache.demand_miss_rate::total     0.000075                       # miss rate for demand accesses
system.cpu.icache.overall_miss_rate::.cpu.inst     0.000075                       # miss rate for overall accesses
system.cpu.icache.overall_miss_rate::total     0.000075                       # miss rate for overall accesses
system.cpu.icache.demand_avg_miss_latency::.cpu.inst 72531.694696                       # average overall miss latency
system.cpu.icache.demand_avg_miss_latency::total 72531.694696                       # average overall miss latency
system.cpu.icache.overall_avg_miss_latency::.cpu.inst 72531.694696                       # average overall miss latency
system.cpu.icache.overall_avg_miss_latency::total 72531.694696                       # average overall miss latency
system.cpu.icache.blocked_cycles::no_mshrs            0                       # number of cycles access was blocked
system.cpu.icache.blocked_cycles::no_targets            0                       # number of cycles access was blocked
system.cpu.icache.blocked::no_mshrs                 0                       # number of cycles access was blocked
system.cpu.icache.blocked::no_targets               0                       # number of cycles access was blocked
system.cpu.icache.avg_blocked_cycles::no_mshrs          nan                       # average number of cycles each access was blocked
system.cpu.icache.avg_blocked_cycles::no_targets          nan                       # average number of cycles each access was blocked
system.cpu.icache.writebacks::.writebacks          333                       # number of writebacks
system.cpu.icache.writebacks::total               333                       # number of writebacks
system.cpu.icache.demand_mshr_misses::.cpu.inst          773                       # number of demand (read+write) MSHR misses
system.cpu.icache.demand_mshr_misses::total          773                       # number of demand (read+write) MSHR misses
system.cpu.icache.overall_mshr_misses::.cpu.inst          773                       # number of overall MSHR misses
system.cpu.icache.overall_mshr_misses::total          773                       # number of overall MSHR misses
system.cpu.icache.demand_mshr_miss_latency::.cpu.inst     55294000                       # number of demand (read+write) MSHR miss cycles
system.cpu.icache.demand_mshr_miss_latency::total     55294000                       # number of demand (read+write) MSHR miss cycles
system.cpu.icache.overall_mshr_miss_latency::.cpu.inst     55294000                       # number of overall MSHR miss cycles
system.cpu.icache.overall_mshr_miss_latency::total     55294000                       # number of overall MSHR miss cycles
system.cpu.icache.demand_mshr_miss_rate::.cpu.inst     0.000075                       # mshr miss rate for demand accesses
system.cpu.icache.demand_mshr_miss_rate::total     0.000075                       # mshr miss rate for demand accesses
system.cpu.icache.overall_mshr_miss_rate::.cpu.inst     0.000075                       # mshr miss rate for overall accesses
system.cpu.icache.overall_mshr_miss_rate::total     0.000075                       # mshr miss rate for overall accesses
system.cpu.icache.demand_avg_mshr_miss_latency::.cpu.inst 71531.694696                       # average overall mshr miss latency
system.cpu.icache.demand_avg_mshr_miss_latency::total 71531.694696                       # average overall mshr miss latency
system.cpu.icache.overall_avg_mshr_miss_latency::.cpu.inst 71531.694696                       # average overall mshr miss latency
system.cpu.icache.overall_avg_mshr_miss_latency::total 71531.694696                       # average overall mshr miss latency
system.cpu.icache.replacements                    333                       # number of replacements
system.cpu.icache.ReadReq_hits::.cpu.inst     10278312                       # number of ReadReq hits
system.cpu.icache.ReadReq_hits::total        10278312                       # number of ReadReq hits
system.cpu.icache.ReadReq_misses::.cpu.inst          773                       # number of ReadReq misses
system.cpu.icache.ReadReq_misses::total           773                       # number of ReadReq misses
system.cpu.icache.ReadReq_miss_latency::.cpu.inst     56067000                       # number of ReadReq miss cycles
system.cpu.icache.ReadReq_miss_latency::total     56067000                       # number of ReadReq miss cycles
system.cpu.icache.ReadReq_accesses::.cpu.inst     10279085                       # number of ReadReq accesses(hits+misses)
system.cpu.icache.ReadReq_accesses::total     10279085                       # number of ReadReq accesses(hits+misses)
system.cpu.icache.ReadReq_miss_rate::.cpu.inst     0.000075                       # miss rate for ReadReq accesses
system.cpu.icache.ReadReq_miss_rate::total     0.000075                       # miss rate for ReadReq accesses
system.cpu.icache.ReadReq_avg_miss_latency::.cpu.inst 72531.694696                       # average ReadReq miss latency
system.cpu.icache.ReadReq_avg_miss_latency::total 72531.694696                       # average ReadReq miss latency
system.cpu.icache.ReadReq_mshr_misses::.cpu.inst          773                       # number of ReadReq MSHR misses
system.cpu.icache.ReadReq_mshr_misses::total          773                       # number of ReadReq MSHR misses
system.cpu.icache.ReadReq_mshr_miss_latency::.cpu.inst     55294000                       # number of ReadReq MSHR miss cycles
system.cpu.icache.ReadReq_mshr_miss_latency::total     55294000                       # number of ReadReq MSHR miss cycles
system.cpu.icache.ReadReq_mshr_miss_rate::.cpu.inst     0.000075                       # mshr miss rate for ReadReq accesses
system.cpu.icache.ReadReq_mshr_miss_rate::total     0.000075                       # mshr miss rate for ReadReq accesses
system.cpu.icache.ReadReq_avg_mshr_miss_latency::.cpu.inst 71531.694696                       # average ReadReq mshr miss latency
system.cpu.icache.ReadReq_avg_mshr_miss_latency::total 71531.694696                       # average ReadReq mshr miss latency
system.cpu.icache.power_state.pwrStateResidencyTicks::UNDEFINED  87038996000                       # Cumulative time (in ticks) in various power states
system.cpu.icache.tags.tagsinuse           355.930047                       # Cycle average of tags in use
system.cpu.icache.tags.total_refs            10279085                       # Total number of references to valid blocks.
system.cpu.icache.tags.sampled_refs               773                       # Sample count of references to valid blocks.
system.cpu.icache.tags.avg_refs          13297.652005                       # Average number of references to valid blocks.
system.cpu.icache.tags.warmup_cycle             87500                       # Cycle when the warmup percentage was hit.
system.cpu.icache.tags.occ_blocks::.cpu.inst   355.930047                       # Average occupied blocks per requestor
system.cpu.icache.tags.occ_percent::.cpu.inst     0.695176                       # Average percentage of cache occupancy
system.cpu.icache.tags.occ_percent::total     0.695176                       # Average percentage of cache occupancy
system.cpu.icache.tags.occ_task_id_blocks::1024          440                       # Occupied blocks per task id
system.cpu.icache.tags.age_task_id_blocks_1024::3          107                       # Occupied blocks per task id
system.cpu.icache.tags.age_task_id_blocks_1024::4          333                       # Occupied blocks per task id
system.cpu.icache.tags.occ_task_id_percent::1024     0.859375                       # Percentage of cache occupancy per task id
system.cpu.icache.tags.tag_accesses          20558943                       # Number of tag accesses
system.cpu.icache.tags.data_accesses         20558943                       # Number of data accesses
system.cpu.icache.tags.power_state.pwrStateResidencyTicks::UNDEFINED  87038996000                       # Cumulative time (in ticks) in various power states
system.cpu.itb.instHits                             0                       # ITB inst hits
system.cpu.itb.instMisses                           0                       # ITB inst misses
system.cpu.itb.readHits                             0                       # DTB read hits
system.cpu.itb.readMisses                           0                       # DTB read misses
system.cpu.itb.writeHits                            0                       # DTB write hits
system.cpu.itb.writeMisses                          0                       # DTB write misses
system.cpu.itb.inserts                              0                       # Number of times an entry is inserted into the TLB
system.cpu.itb.flushTlb                             0                       # Number of times complete TLB was flushed
system.cpu.itb.flushTlbMva                          0                       # Number of times TLB was flushed by MVA
system.cpu.itb.flushTlbMvaAsid                      0                       # Number of times TLB was flushed by MVA & ASID
system.cpu.itb.flushTlbAsid                         0                       # Number of times TLB was flushed by ASID
system.cpu.itb.flushedEntries                       0                       # Number of entries that have been flushed from TLB
system.cpu.itb.alignFaults                          0                       # Number of TLB faults due to alignment restrictions
system.cpu.itb.prefetchFaults                       0                       # Number of TLB faults due to prefetch
system.cpu.itb.domainFaults                         0                       # Number of TLB faults due to domain restrictions
system.cpu.itb.permsFaults                          0                       # Number of TLB faults due to permissions restrictions
system.cpu.itb.readAccesses                         0                       # DTB read accesses
system.cpu.itb.writeAccesses                        0                       # DTB write accesses
system.cpu.itb.instAccesses                         0                       # ITB inst accesses
system.cpu.itb.hits                                 0                       # Total TLB (inst and data) hits
system.cpu.itb.misses                               0                       # Total TLB (inst and data) misses
system.cpu.itb.accesses                             0                       # Total TLB (inst and data) accesses
system.cpu.itb.stage2_mmu.stage2_tlb.instHits            0                       # ITB inst hits
system.cpu.itb.stage2_mmu.stage2_tlb.instMisses            0                       # ITB inst misses
system.cpu.itb.stage2_mmu.stage2_tlb.readHits            0                       # DTB read hits
system.cpu.itb.stage2_mmu.stage2_tlb.readMisses            0                       # DTB read misses
system.cpu.itb.stage2_mmu.stage2_tlb.writeHits            0                       # DTB write hits
system.cpu.itb.stage2_mmu.stage2_tlb.writeMisses            0                       # DTB write misses
system.cpu.itb.stage2_mmu.stage2_tlb.inserts            0                       # Number of times an entry is inserted into the TLB
system.cpu.itb.stage2_mmu.stage2_tlb.flushTlb            0                       # Number of times complete TLB was flushed
system.cpu.itb.stage2_mmu.stage2_tlb.flushTlbMva            0                       # Number of times TLB was flushed by MVA
system.cpu.itb.stage2_mmu.stage2_tlb.flushTlbMvaAsid            0                       # Number of times TLB was flushed by MVA & ASID
system.cpu.itb.stage2_mmu.stage2_tlb.flushTlbAsid            0                       # Number of times TLB was flushed by ASID
system.cpu.itb.stage2_mmu.stage2_tlb.flushedEntries            0                       # Number of entries that have been flushed from TLB
system.cpu.itb.stage2_mmu.stage2_tlb.alignFaults            0                       # Number of TLB faults due to alignment restrictions
system.cpu.itb.stage2_mmu.stage2_tlb.prefetchFaults            0                       # Number of TLB faults due to prefetch
system.cpu.itb.stage2_mmu.stage2_tlb.domainFaults            0                       # Number of TLB faults due to domain restrictions
system.cpu.itb.stage2_mmu.stage2_tlb.permsFaults            0                       # Number of TLB faults due to permissions restrictions
system.cpu.itb.stage2_mmu.stage2_tlb.readAccesses            0                       # DTB read accesses
system.cpu.itb.stage2_mmu.stage2_tlb.writeAccesses            0                       # DTB write accesses
system.cpu.itb.stage2_mmu.stage2_tlb.instAccesses            0                       # ITB inst accesses
system.cpu.itb.stage2_mmu.stage2_tlb.hits            0                       # Total TLB (inst and data) hits
system.cpu.itb.stage2_mmu.stage2_tlb.misses            0                       # Total TLB (inst and data) misses
system.cpu.itb.stage2_mmu.stage2_tlb.accesses            0                       # Total TLB (inst and data) accesses
system.cpu.itb.stage2_mmu.stage2_tlb.walker.walks            0                       # Table walker walks requested
system.cpu.itb.stage2_mmu.stage2_tlb.walker.requestOrigin_Requested::Data            0                       # Table walker requests started/completed, data/inst
system.cpu.itb.stage2_mmu.stage2_tlb.walker.requestOrigin_Requested::Inst            0                       # Table walker requests started/completed, data/inst
system.cpu.itb.stage2_mmu.stage2_tlb.walker.requestOrigin_Requested::total            0                       # Table walker requests started/completed, data/inst
system.cpu.itb.stage2_mmu.stage2_tlb.walker.requestOrigin_Completed::Data            0                       # Table walker requests started/completed, data/inst
system.cpu.itb.stage2_mmu.stage2_tlb.walker.requestOrigin_Completed::Inst            0                       # Table walker requests started/completed, data/inst
system.cpu.itb.stage2_mmu.stage2_tlb.walker.requestOrigin_Completed::total            0                       # Table walker requests started/completed, data/inst
system.cpu.itb.stage2_mmu.stage2_tlb.walker.requestOrigin::total            0                       # Table walker requests started/completed, data/inst
system.cpu.itb.stage2_mmu.stage2_tlb.walker.power_state.pwrStateResidencyTicks::UNDEFINED  87038996000                       # Cumulative time (in ticks) in various power states
system.cpu.itb.walker.walks                         0                       # Table walker walks requested
system.cpu.itb.walker.requestOrigin_Requested::Data            0                       # Table walker requests started/completed, data/inst
system.cpu.itb.walker.requestOrigin_Requested::Inst            0                       # Table walker requests started/completed, data/inst
system.cpu.itb.walker.requestOrigin_Requested::total            0                       # Table walker requests started/completed, data/inst
system.cpu.itb.walker.requestOrigin_Completed::Data            0                       # Table walker requests started/completed, data/inst
system.cpu.itb.walker.requestOrigin_Completed::Inst            0                       # Table walker requests started/completed, data/inst
system.cpu.itb.walker.requestOrigin_Completed::total            0                       # Table walker requests started/completed, data/inst
system.cpu.itb.walker.requestOrigin::total            0                       # Table walker requests started/completed, data/inst
system.cpu.itb.walker.power_state.pwrStateResidencyTicks::UNDEFINED  87038996000                       # Cumulative time (in ticks) in various power states
system.cpu.power_state.pwrStateResidencyTicks::ON  87038996000                       # Cumulative time (in ticks) in various power states
system.cpu.thread_0.numInsts                100000001                       # Number of Instructions committed
system.cpu.thread_0.numOps                  100196356                       # Number of Ops committed
system.cpu.thread_0.numMemRefs                      0                       # Number of Memory References
system.cpu_clk_domain.clock                       500                       # Clock period in ticks
system.cpu_voltage_domain.voltage                   1                       # Voltage in Volts
system.l2.demand_hits::.cpu.inst                  102                       # number of demand (read+write) hits
system.l2.demand_hits::.cpu.data               871509                       # number of demand (read+write) hits
system.l2.demand_hits::total                   871611                       # number of demand (read+write) hits
system.l2.overall_hits::.cpu.inst                 102                       # number of overall hits
system.l2.overall_hits::.cpu.data              871509                       # number of overall hits
system.l2.overall_hits::total                  871611                       # number of overall hits
system.l2.demand_misses::.cpu.inst                671                       # number of demand (read+write) misses
system.l2.demand_misses::.cpu.data             201149                       # number of demand (read+write) misses
system.l2.demand_misses::total                 201820                       # number of demand (read+write) misses
system.l2.overall_misses::.cpu.inst               671                       # number of overall misses
system.l2.overall_misses::.cpu.data            201149                       # number of overall misses
system.l2.overall_misses::total                201820                       # number of overall misses
system.l2.demand_miss_latency::.cpu.inst     53045000                       # number of demand (read+write) miss cycles
system.l2.demand_miss_latency::.cpu.data  16979424500                       # number of demand (read+write) miss cycles
system.l2.demand_miss_latency::total      17032469500                       # number of demand (read+write) miss cycles
system.l2.overall_miss_latency::.cpu.inst     53045000                       # number of overall miss cycles
system.l2.overall_miss_latency::.cpu.data  16979424500                       # number of overall miss cycles
system.l2.overall_miss_latency::total     17032469500                       # number of overall miss cycles
system.l2.demand_accesses::.cpu.inst              773                       # number of demand (read+write) accesses
system.l2.demand_accesses::.cpu.data          1072658                       # number of demand (read+write) accesses
system.l2.demand_accesses::total              1073431                       # number of demand (read+write) accesses
system.l2.overall_accesses::.cpu.inst             773                       # number of overall (read+write) accesses
system.l2.overall_accesses::.cpu.data         1072658                       # number of overall (read+write) accesses
system.l2.overall_accesses::total             1073431                       # number of overall (read+write) accesses
system.l2.demand_miss_rate::.cpu.inst        0.868047                       # miss rate for demand accesses
system.l2.demand_miss_rate::.cpu.data        0.187524                       # miss rate for demand accesses
system.l2.demand_miss_rate::total            0.188014                       # miss rate for demand accesses
system.l2.overall_miss_rate::.cpu.inst       0.868047                       # miss rate for overall accesses
system.l2.overall_miss_rate::.cpu.data       0.187524                       # miss rate for overall accesses
system.l2.overall_miss_rate::total           0.188014                       # miss rate for overall accesses
system.l2.demand_avg_miss_latency::.cpu.inst 79053.651267                       # average overall miss latency
system.l2.demand_avg_miss_latency::.cpu.data 84412.174557                       # average overall miss latency
system.l2.demand_avg_miss_latency::total 84394.358835                       # average overall miss latency
system.l2.overall_avg_miss_latency::.cpu.inst 79053.651267                       # average overall miss latency
system.l2.overall_avg_miss_latency::.cpu.data 84412.174557                       # average overall miss latency
system.l2.overall_avg_miss_latency::total 84394.358835                       # average overall miss latency
system.l2.blocked_cycles::no_mshrs                  0                       # number of cycles access was blocked
system.l2.blocked_cycles::no_targets                0                       # number of cycles access was blocked
system.l2.blocked::no_mshrs                         0                       # number of cycles access was blocked
system.l2.blocked::no_targets                       0                       # number of cycles access was blocked
system.l2.avg_blocked_cycles::no_mshrs            nan                       # average number of cycles each access was blocked
system.l2.avg_blocked_cycles::no_targets          nan                       # average number of cycles each access was blocked
system.l2.writebacks::.writebacks              111032                       # number of writebacks
system.l2.writebacks::total                    111032                       # number of writebacks
system.l2.demand_mshr_hits::.cpu.data               6                       # number of demand (read+write) MSHR hits
system.l2.demand_mshr_hits::total                   6                       # number of demand (read+write) MSHR hits
system.l2.overall_mshr_hits::.cpu.data              6                       # number of overall MSHR hits
system.l2.overall_mshr_hits::total                  6                       # number of overall MSHR hits
system.l2.demand_mshr_misses::.cpu.inst           671                       # number of demand (read+write) MSHR misses
system.l2.demand_mshr_misses::.cpu.data        201143                       # number of demand (read+write) MSHR misses
system.l2.demand_mshr_misses::total            201814                       # number of demand (read+write) MSHR misses
system.l2.overall_mshr_misses::.cpu.inst          671                       # number of overall MSHR misses
system.l2.overall_mshr_misses::.cpu.data       201143                       # number of overall MSHR misses
system.l2.overall_mshr_misses::total           201814                       # number of overall MSHR misses
system.l2.demand_mshr_miss_latency::.cpu.inst     46335000                       # number of demand (read+write) MSHR miss cycles
system.l2.demand_mshr_miss_latency::.cpu.data  14967617000                       # number of demand (read+write) MSHR miss cycles
system.l2.demand_mshr_miss_latency::total  15013952000                       # number of demand (read+write) MSHR miss cycles
system.l2.overall_mshr_miss_latency::.cpu.inst     46335000                       # number of overall MSHR miss cycles
system.l2.overall_mshr_miss_latency::.cpu.data  14967617000                       # number of overall MSHR miss cycles
system.l2.overall_mshr_miss_latency::total  15013952000                       # number of overall MSHR miss cycles
system.l2.demand_mshr_miss_rate::.cpu.inst     0.868047                       # mshr miss rate for demand accesses
system.l2.demand_mshr_miss_rate::.cpu.data     0.187518                       # mshr miss rate for demand accesses
system.l2.demand_mshr_miss_rate::total       0.188008                       # mshr miss rate for demand accesses
system.l2.overall_mshr_miss_rate::.cpu.inst     0.868047                       # mshr miss rate for overall accesses
system.l2.overall_mshr_miss_rate::.cpu.data     0.187518                       # mshr miss rate for overall accesses
system.l2.overall_mshr_miss_rate::total      0.188008                       # mshr miss rate for overall accesses
system.l2.demand_avg_mshr_miss_latency::.cpu.inst 69053.651267                       # average overall mshr miss latency
system.l2.demand_avg_mshr_miss_latency::.cpu.data 74412.815758                       # average overall mshr miss latency
system.l2.demand_avg_mshr_miss_latency::total 74394.997374                       # average overall mshr miss latency
system.l2.overall_avg_mshr_miss_latency::.cpu.inst 69053.651267                       # average overall mshr miss latency
system.l2.overall_avg_mshr_miss_latency::.cpu.data 74412.815758                       # average overall mshr miss latency
system.l2.overall_avg_mshr_miss_latency::total 74394.997374                       # average overall mshr miss latency
system.l2.replacements                         169176                       # number of replacements
system.l2.WritebackDirty_hits::.writebacks       989176                       # number of WritebackDirty hits
system.l2.WritebackDirty_hits::total           989176                       # number of WritebackDirty hits
system.l2.WritebackDirty_accesses::.writebacks       989176                       # number of WritebackDirty accesses(hits+misses)
system.l2.WritebackDirty_accesses::total       989176                       # number of WritebackDirty accesses(hits+misses)
system.l2.WritebackClean_hits::.writebacks          326                       # number of WritebackClean hits
system.l2.WritebackClean_hits::total              326                       # number of WritebackClean hits
system.l2.WritebackClean_accesses::.writebacks          326                       # number of WritebackClean accesses(hits+misses)
system.l2.WritebackClean_accesses::total          326                       # number of WritebackClean accesses(hits+misses)
system.l2.ReadExReq_hits::.cpu.data            269254                       # number of ReadExReq hits
system.l2.ReadExReq_hits::total                269254                       # number of ReadExReq hits
system.l2.ReadExReq_misses::.cpu.data          136083                       # number of ReadExReq misses
system.l2.ReadExReq_misses::total              136083                       # number of ReadExReq misses
system.l2.ReadExReq_miss_latency::.cpu.data  11781492500                       # number of ReadExReq miss cycles
system.l2.ReadExReq_miss_latency::total   11781492500                       # number of ReadExReq miss cycles
system.l2.ReadExReq_accesses::.cpu.data        405337                       # number of ReadExReq accesses(hits+misses)
system.l2.ReadExReq_accesses::total            405337                       # number of ReadExReq accesses(hits+misses)
system.l2.ReadExReq_miss_rate::.cpu.data     0.335728                       # miss rate for ReadExReq accesses
system.l2.ReadExReq_miss_rate::total         0.335728                       # miss rate for ReadExReq accesses
system.l2.ReadExReq_avg_miss_latency::.cpu.data 86575.784631                       # average ReadExReq miss latency
system.l2.ReadExReq_avg_miss_latency::total 86575.784631                       # average ReadExReq miss latency
system.l2.ReadExReq_mshr_misses::.cpu.data       136083                       # number of ReadExReq MSHR misses
system.l2.ReadExReq_mshr_misses::total         136083                       # number of ReadExReq MSHR misses
system.l2.ReadExReq_mshr_miss_latency::.cpu.data  10420662500                       # number of ReadExReq MSHR miss cycles
system.l2.ReadExReq_mshr_miss_latency::total  10420662500                       # number of ReadExReq MSHR miss cycles
system.l2.ReadExReq_mshr_miss_rate::.cpu.data     0.335728                       # mshr miss rate for ReadExReq accesses
system.l2.ReadExReq_mshr_miss_rate::total     0.335728                       # mshr miss rate for ReadExReq accesses
system.l2.ReadExReq_avg_mshr_miss_latency::.cpu.data 76575.784631                       # average ReadExReq mshr miss latency
system.l2.ReadExReq_avg_mshr_miss_latency::total 76575.784631                       # average ReadExReq mshr miss latency
system.l2.ReadCleanReq_hits::.cpu.inst            102                       # number of ReadCleanReq hits
system.l2.ReadCleanReq_hits::total                102                       # number of ReadCleanReq hits
system.l2.ReadCleanReq_misses::.cpu.inst          671                       # number of ReadCleanReq misses
system.l2.ReadCleanReq_misses::total              671                       # number of ReadCleanReq misses
system.l2.ReadCleanReq_miss_latency::.cpu.inst     53045000                       # number of ReadCleanReq miss cycles
system.l2.ReadCleanReq_miss_latency::total     53045000                       # number of ReadCleanReq miss cycles
system.l2.ReadCleanReq_accesses::.cpu.inst          773                       # number of ReadCleanReq accesses(hits+misses)
system.l2.ReadCleanReq_accesses::total            773                       # number of ReadCleanReq accesses(hits+misses)
system.l2.ReadCleanReq_miss_rate::.cpu.inst     0.868047                       # miss rate for ReadCleanReq accesses
system.l2.ReadCleanReq_miss_rate::total      0.868047                       # miss rate for ReadCleanReq accesses
system.l2.ReadCleanReq_avg_miss_latency::.cpu.inst 79053.651267                       # average ReadCleanReq miss latency
system.l2.ReadCleanReq_avg_miss_latency::total 79053.651267                       # average ReadCleanReq miss latency
system.l2.ReadCleanReq_mshr_misses::.cpu.inst          671                       # number of ReadCleanReq MSHR misses
system.l2.ReadCleanReq_mshr_misses::total          671                       # number of ReadCleanReq MSHR misses
system.l2.ReadCleanReq_mshr_miss_latency::.cpu.inst     46335000                       # number of ReadCleanReq MSHR miss cycles
system.l2.ReadCleanReq_mshr_miss_latency::total     46335000                       # number of ReadCleanReq MSHR miss cycles
system.l2.ReadCleanReq_mshr_miss_rate::.cpu.inst     0.868047                       # mshr miss rate for ReadCleanReq accesses
system.l2.ReadCleanReq_mshr_miss_rate::total     0.868047                       # mshr miss rate for ReadCleanReq accesses
system.l2.ReadCleanReq_avg_mshr_miss_latency::.cpu.inst 69053.651267                       # average ReadCleanReq mshr miss latency
system.l2.ReadCleanReq_avg_mshr_miss_latency::total 69053.651267                       # average ReadCleanReq mshr miss latency
system.l2.ReadSharedReq_hits::.cpu.data        602255                       # number of ReadSharedReq hits
system.l2.ReadSharedReq_hits::total            602255                       # number of ReadSharedReq hits
system.l2.ReadSharedReq_misses::.cpu.data        65066                       # number of ReadSharedReq misses
system.l2.ReadSharedReq_misses::total           65066                       # number of ReadSharedReq misses
system.l2.ReadSharedReq_miss_latency::.cpu.data   5197932000                       # number of ReadSharedReq miss cycles
system.l2.ReadSharedReq_miss_latency::total   5197932000                       # number of ReadSharedReq miss cycles
system.l2.ReadSharedReq_accesses::.cpu.data       667321                       # number of ReadSharedReq accesses(hits+misses)
system.l2.ReadSharedReq_accesses::total        667321                       # number of ReadSharedReq accesses(hits+misses)
system.l2.ReadSharedReq_miss_rate::.cpu.data     0.097503                       # miss rate for ReadSharedReq accesses
system.l2.ReadSharedReq_miss_rate::total     0.097503                       # miss rate for ReadSharedReq accesses
system.l2.ReadSharedReq_avg_miss_latency::.cpu.data 79887.068515                       # average ReadSharedReq miss latency
system.l2.ReadSharedReq_avg_miss_latency::total 79887.068515                       # average ReadSharedReq miss latency
system.l2.ReadSharedReq_mshr_hits::.cpu.data            6                       # number of ReadSharedReq MSHR hits
system.l2.ReadSharedReq_mshr_hits::total            6                       # number of ReadSharedReq MSHR hits
system.l2.ReadSharedReq_mshr_misses::.cpu.data        65060                       # number of ReadSharedReq MSHR misses
system.l2.ReadSharedReq_mshr_misses::total        65060                       # number of ReadSharedReq MSHR misses
system.l2.ReadSharedReq_mshr_miss_latency::.cpu.data   4546954500                       # number of ReadSharedReq MSHR miss cycles
system.l2.ReadSharedReq_mshr_miss_latency::total   4546954500                       # number of ReadSharedReq MSHR miss cycles
system.l2.ReadSharedReq_mshr_miss_rate::.cpu.data     0.097494                       # mshr miss rate for ReadSharedReq accesses
system.l2.ReadSharedReq_mshr_miss_rate::total     0.097494                       # mshr miss rate for ReadSharedReq accesses
system.l2.ReadSharedReq_avg_mshr_miss_latency::.cpu.data 69888.633569                       # average ReadSharedReq mshr miss latency
system.l2.ReadSharedReq_avg_mshr_miss_latency::total 69888.633569                       # average ReadSharedReq mshr miss latency
system.l2.power_state.pwrStateResidencyTicks::UNDEFINED  87038996000                       # Cumulative time (in ticks) in various power states
system.l2.tags.tagsinuse                 31928.550305                       # Cycle average of tags in use
system.l2.tags.total_refs                     2145473                       # Total number of references to valid blocks.
system.l2.tags.sampled_refs                    201944                       # Sample count of references to valid blocks.
system.l2.tags.avg_refs                     10.624099                       # Average number of references to valid blocks.
system.l2.tags.warmup_cycle                     77000                       # Cycle when the warmup percentage was hit.
system.l2.tags.occ_blocks::.writebacks      47.738227                       # Average occupied blocks per requestor
system.l2.tags.occ_blocks::.cpu.inst        85.762201                       # Average occupied blocks per requestor
system.l2.tags.occ_blocks::.cpu.data     31795.049877                       # Average occupied blocks per requestor
system.l2.tags.occ_percent::.writebacks      0.001457                       # Average percentage of cache occupancy
system.l2.tags.occ_percent::.cpu.inst        0.002617                       # Average percentage of cache occupancy
system.l2.tags.occ_percent::.cpu.data        0.970308                       # Average percentage of cache occupancy
system.l2.tags.occ_percent::total            0.974382                       # Average percentage of cache occupancy
system.l2.tags.occ_task_id_blocks::1024         32768                       # Occupied blocks per task id
system.l2.tags.age_task_id_blocks_1024::1          137                       # Occupied blocks per task id
system.l2.tags.age_task_id_blocks_1024::2         1161                       # Occupied blocks per task id
system.l2.tags.age_task_id_blocks_1024::3        15284                       # Occupied blocks per task id
system.l2.tags.age_task_id_blocks_1024::4        16186                       # Occupied blocks per task id
system.l2.tags.occ_task_id_percent::1024            1                       # Percentage of cache occupancy per task id
system.l2.tags.tag_accesses                  17365776                       # Number of tag accesses
system.l2.tags.data_accesses                 17365776                       # Number of data accesses
system.l2.tags.power_state.pwrStateResidencyTicks::UNDEFINED  87038996000                       # Cumulative time (in ticks) in various power states
system.mem_ctrls.avgPriority_.writebacks::samples    111032.00                       # Average QoS priority value for accepted requests
system.mem_ctrls.avgPriority_.cpu.inst::samples       671.00                       # Average QoS priority value for accepted requests
system.mem_ctrls.avgPriority_.cpu.data::samples    201112.00                       # Average QoS priority value for accepted requests
system.mem_ctrls.priorityMinLatency      0.000000018750                       # per QoS priority minimum request to response latency (s)
system.mem_ctrls.priorityMaxLatency      0.003988516500                       # per QoS priority maximum request to response latency (s)
system.mem_ctrls.numReadWriteTurnArounds         6646                       # Number of turnarounds from READ to WRITE
system.mem_ctrls.numWriteReadTurnArounds         6646                       # Number of turnarounds from WRITE to READ
system.mem_ctrls.numStayReadState              526216                       # Number of times bus staying in READ state
system.mem_ctrls.numStayWriteState             104504                       # Number of times bus staying in WRITE state
system.mem_ctrls.readReqs                      201814                       # Number of read requests accepted
system.mem_ctrls.writeReqs                     111032                       # Number of write requests accepted
system.mem_ctrls.readBursts                    201814                       # Number of controller read bursts, including those serviced by the write queue
system.mem_ctrls.writeBursts                   111032                       # Number of controller write bursts, including those merged in the write queue
system.mem_ctrls.servicedByWrQ                     31                       # Number of controller read bursts serviced by the write queue
system.mem_ctrls.mergedWrBursts                     0                       # Number of controller write bursts merged with an existing one
system.mem_ctrls.neitherReadNorWriteReqs            0                       # Number of requests that are neither read nor write
system.mem_ctrls.avgRdQLen                       1.08                       # Average read queue length when enqueuing
system.mem_ctrls.avgWrQLen                      24.49                       # Average write queue length when enqueuing
system.mem_ctrls.numRdRetry                         0                       # Number of times read queue was full causing retry
system.mem_ctrls.numWrRetry                         0                       # Number of times write queue was full causing retry
system.mem_ctrls.readPktSize::0                     0                       # Read request sizes (log2)
system.mem_ctrls.readPktSize::1                     0                       # Read request sizes (log2)
system.mem_ctrls.readPktSize::2                     0                       # Read request sizes (log2)
system.mem_ctrls.readPktSize::3                     0                       # Read request sizes (log2)
system.mem_ctrls.readPktSize::4                     0                       # Read request sizes (log2)
system.mem_ctrls.readPktSize::5                     0                       # Read request sizes (log2)
system.mem_ctrls.readPktSize::6                201814                       # Read request sizes (log2)
system.mem_ctrls.writePktSize::0                    0                       # Write request sizes (log2)
system.mem_ctrls.writePktSize::1                    0                       # Write request sizes (log2)
system.mem_ctrls.writePktSize::2                    0                       # Write request sizes (log2)
system.mem_ctrls.writePktSize::3                    0                       # Write request sizes (log2)
system.mem_ctrls.writePktSize::4                    0                       # Write request sizes (log2)
system.mem_ctrls.writePktSize::5                    0                       # Write request sizes (log2)
system.mem_ctrls.writePktSize::6               111032                       # Write request sizes (log2)
system.mem_ctrls.rdQLenPdf::0                  140968                       # What read queue length does an incoming req see
system.mem_ctrls.rdQLenPdf::1                   58855                       # What read queue length does an incoming req see
system.mem_ctrls.rdQLenPdf::2                    1664                       # What read queue length does an incoming req see
system.mem_ctrls.rdQLenPdf::3                     295                       # What read queue length does an incoming req see
system.mem_ctrls.rdQLenPdf::4                       1                       # What read queue length does an incoming req see
system.mem_ctrls.rdQLenPdf::5                       0                       # What read queue length does an incoming req see
system.mem_ctrls.rdQLenPdf::6                       0                       # What read queue length does an incoming req see
system.mem_ctrls.rdQLenPdf::7                       0                       # What read queue length does an incoming req see
system.mem_ctrls.rdQLenPdf::8                       0                       # What read queue length does an incoming req see
system.mem_ctrls.rdQLenPdf::9                       0                       # What read queue length does an incoming req see
system.mem_ctrls.rdQLenPdf::10                      0                       # What read queue length does an incoming req see
system.mem_ctrls.rdQLenPdf::11                      0                       # What read queue length does an incoming req see
system.mem_ctrls.rdQLenPdf::12                      0                       # What read queue length does an incoming req see
[...]
system.mem_ctrls.dram.bw_write::.writebacks     81642118                       # Write bandwidth from this memory (bytes/s)
system.mem_ctrls.dram.bw_write::total        81642118                       # Write bandwidth from this memory (bytes/s)
system.mem_ctrls.dram.bw_total::.writebacks     81642118                       # Total bandwidth to/from this memory (bytes/s)
system.mem_ctrls.dram.bw_total::.cpu.inst       493388                       # Total bandwidth to/from this memory (bytes/s)
system.mem_ctrls.dram.bw_total::.cpu.data    147900971                       # Total bandwidth to/from this memory (bytes/s)
system.mem_ctrls.dram.bw_total::total       230036477                       # Total bandwidth to/from this memory (bytes/s)
system.mem_ctrls.dram.readBursts               201783                       # Number of DRAM read bursts
system.mem_ctrls.dram.writeBursts              111015                       # Number of DRAM write bursts
system.mem_ctrls.dram.perBankRdBursts::0        12904                       # Per bank write bursts
system.mem_ctrls.dram.perBankRdBursts::1        12868                       # Per bank write bursts
system.mem_ctrls.dram.perBankRdBursts::2        12782                       # Per bank write bursts
system.mem_ctrls.dram.perBankRdBursts::3        12535                       # Per bank write bursts
system.mem_ctrls.dram.perBankRdBursts::4        12593                       # Per bank write bursts
system.mem_ctrls.dram.perBankRdBursts::5        12355                       # Per bank write bursts
system.mem_ctrls.dram.perBankRdBursts::6        12586                       # Per bank write bursts
system.mem_ctrls.dram.perBankRdBursts::7        12370                       # Per bank write bursts
system.mem_ctrls.dram.perBankRdBursts::8        12462                       # Per bank write bursts
system.mem_ctrls.dram.perBankRdBursts::9        12125                       # Per bank write bursts
system.mem_ctrls.dram.perBankRdBursts::10        12588                       # Per bank write bursts
system.mem_ctrls.dram.perBankRdBursts::11        12639                       # Per bank write bursts
system.mem_ctrls.dram.perBankRdBursts::12        12776                       # Per bank write bursts
system.mem_ctrls.dram.perBankRdBursts::13        12737                       # Per bank write bursts
system.mem_ctrls.dram.perBankRdBursts::14        12791                       # Per bank write bursts
system.mem_ctrls.dram.perBankRdBursts::15        12672                       # Per bank write bursts
system.mem_ctrls.dram.perBankWrBursts::0         7058                       # Per bank write bursts
system.mem_ctrls.dram.perBankWrBursts::1         7148                       # Per bank write bursts
system.mem_ctrls.dram.perBankWrBursts::2         7055                       # Per bank write bursts
system.mem_ctrls.dram.perBankWrBursts::3         6944                       # Per bank write bursts
system.mem_ctrls.dram.perBankWrBursts::4         7009                       # Per bank write bursts
system.mem_ctrls.dram.perBankWrBursts::5         6936                       # Per bank write bursts
system.mem_ctrls.dram.perBankWrBursts::6         7117                       # Per bank write bursts
system.mem_ctrls.dram.perBankWrBursts::7         6841                       # Per bank write bursts
system.mem_ctrls.dram.perBankWrBursts::8         6787                       # Per bank write bursts
system.mem_ctrls.dram.perBankWrBursts::9         6487                       # Per bank write bursts
system.mem_ctrls.dram.perBankWrBursts::10         6879                       # Per bank write bursts
system.mem_ctrls.dram.perBankWrBursts::11         6910                       # Per bank write bursts
system.mem_ctrls.dram.perBankWrBursts::12         6995                       # Per bank write bursts
system.mem_ctrls.dram.perBankWrBursts::13         6931                       # Per bank write bursts
system.mem_ctrls.dram.perBankWrBursts::14         6996                       # Per bank write bursts
system.mem_ctrls.dram.perBankWrBursts::15         6922                       # Per bank write bursts
system.mem_ctrls.dram.totQLat              2911178500                       # Total ticks spent queuing
system.mem_ctrls.dram.totBusLat            1008915000                       # Total ticks spent in databus transfers
system.mem_ctrls.dram.totMemAccLat         6694609750                       # Total ticks spent from burst creation until serviced by the DRAM
system.mem_ctrls.dram.avgQLat                14427.27                       # Average queueing delay per DRAM burst
system.mem_ctrls.dram.avgBusLat               5000.00                       # Average bus latency per DRAM burst
system.mem_ctrls.dram.avgMemAccLat           33177.27                       # Average memory access latency per DRAM burst
system.mem_ctrls.dram.readRowHits              138497                       # Number of row buffer hits during reads
system.mem_ctrls.dram.writeRowHits              69929                       # Number of row buffer hits during writes
system.mem_ctrls.dram.readRowHitRate            68.64                       # Row buffer hit rate for reads
system.mem_ctrls.dram.writeRowHitRate           62.99                       # Row buffer hit rate for writes
system.mem_ctrls.dram.bytesPerActivate::samples       104372                       # Bytes accessed per row activation
system.mem_ctrls.dram.bytesPerActivate::mean   191.805005                       # Bytes accessed per row activation
system.mem_ctrls.dram.bytesPerActivate::gmean   112.224916                       # Bytes accessed per row activation
system.mem_ctrls.dram.bytesPerActivate::stdev   255.128469                       # Bytes accessed per row activation
system.mem_ctrls.dram.bytesPerActivate::0-127        68475     65.61%     65.61% # Bytes accessed per row activation
system.mem_ctrls.dram.bytesPerActivate::128-255        14412     13.81%     79.41% # Bytes accessed per row activation
system.mem_ctrls.dram.bytesPerActivate::256-383         2503      2.40%     81.81% # Bytes accessed per row activation
system.mem_ctrls.dram.bytesPerActivate::384-511         1560      1.49%     83.31% # Bytes accessed per row activation
system.mem_ctrls.dram.bytesPerActivate::512-639        10302      9.87%     93.18% # Bytes accessed per row activation
system.mem_ctrls.dram.bytesPerActivate::640-767          604      0.58%     93.76% # Bytes accessed per row activation
system.mem_ctrls.dram.bytesPerActivate::768-895          503      0.48%     94.24% # Bytes accessed per row activation
system.mem_ctrls.dram.bytesPerActivate::896-1023          362      0.35%     94.59% # Bytes accessed per row activation
system.mem_ctrls.dram.bytesPerActivate::1024-1151         5651      5.41%    100.00% # Bytes accessed per row activation
system.mem_ctrls.dram.bytesPerActivate::total       104372                       # Bytes accessed per row activation
system.mem_ctrls.dram.bytesRead              12914112                       # Total number of bytes read from DRAM
system.mem_ctrls.dram.bytesWritten            7104960                       # Total number of bytes written to DRAM
system.mem_ctrls.dram.avgRdBW              148.371564                       # Average DRAM read bandwidth in MiBytes/s
system.mem_ctrls.dram.avgWrBW               81.629618                       # Average DRAM write bandwidth in MiBytes/s
system.mem_ctrls.dram.peakBW                 12800.00                       # Theoretical peak bandwidth in MiByte/s
system.mem_ctrls.dram.busUtil                    1.80                       # Data bus utilization in percentage
system.mem_ctrls.dram.busUtilRead                1.16                       # Data bus utilization in percentage for reads
system.mem_ctrls.dram.busUtilWrite               0.64                       # Data bus utilization in percentage for writes
system.mem_ctrls.dram.pageHitRate               66.63                       # Row buffer hit rate, read and write combined
system.mem_ctrls.dram.power_state.pwrStateResidencyTicks::UNDEFINED  87038996000                       # Cumulative time (in ticks) in various power states
system.mem_ctrls.dram.rank0.actEnergy       375706800                       # Energy for activate commands per rank (pJ)
system.mem_ctrls.dram.rank0.preEnergy       199692900                       # Energy for precharge commands per rank (pJ)
system.mem_ctrls.dram.rank0.readEnergy      721090020                       # Energy for read commands per rank (pJ)
system.mem_ctrls.dram.rank0.writeEnergy     292883760                       # Energy for write commands per rank (pJ)
system.mem_ctrls.dram.rank0.refreshEnergy 6870445920.000001                       # Energy for refresh commands per rank (pJ)
system.mem_ctrls.dram.rank0.actBackEnergy  22749505980                       # Energy for active background per rank (pJ)
system.mem_ctrls.dram.rank0.preBackEnergy  14265495840                       # Energy for precharge background per rank (pJ)
system.mem_ctrls.dram.rank0.actPowerDownEnergy            0                       # Energy for active power-down per rank (pJ)
system.mem_ctrls.dram.rank0.prePowerDownEnergy            0                       # Energy for precharge power-down per rank (pJ)
system.mem_ctrls.dram.rank0.selfRefreshEnergy            0                       # Energy for self refresh per rank (pJ)
system.mem_ctrls.dram.rank0.totalEnergy   45474821220                       # Total energy per rank (pJ)
system.mem_ctrls.dram.rank0.averagePower   522.464910                       # Core power per rank (mW)
system.mem_ctrls.dram.rank0.totalIdleTime            0                       # Total Idle time Per DRAM Rank
system.mem_ctrls.dram.rank0.pwrStateTime::IDLE  36855756750                       # Time in different power states
system.mem_ctrls.dram.rank0.pwrStateTime::REF   2906280000                       # Time in different power states
system.mem_ctrls.dram.rank0.pwrStateTime::SREF            0                       # Time in different power states
system.mem_ctrls.dram.rank0.pwrStateTime::PRE_PDN            0                       # Time in different power states
system.mem_ctrls.dram.rank0.pwrStateTime::ACT  47276959250                       # Time in different power states
system.mem_ctrls.dram.rank0.pwrStateTime::ACT_PDN            0                       # Time in different power states
system.mem_ctrls.dram.rank1.actEnergy       369509280                       # Energy for activate commands per rank (pJ)
system.mem_ctrls.dram.rank1.preEnergy       196398840                       # Energy for precharge commands per rank (pJ)
system.mem_ctrls.dram.rank1.readEnergy      719640600                       # Energy for read commands per rank (pJ)
system.mem_ctrls.dram.rank1.writeEnergy     286614540                       # Energy for write commands per rank (pJ)
system.mem_ctrls.dram.rank1.refreshEnergy 6870445920.000001                       # Energy for refresh commands per rank (pJ)
system.mem_ctrls.dram.rank1.actBackEnergy  22369368990                       # Energy for active background per rank (pJ)
system.mem_ctrls.dram.rank1.preBackEnergy  14585611200                       # Energy for precharge background per rank (pJ)
system.mem_ctrls.dram.rank1.actPowerDownEnergy            0                       # Energy for active power-down per rank (pJ)
system.mem_ctrls.dram.rank1.prePowerDownEnergy            0                       # Energy for precharge power-down per rank (pJ)
system.mem_ctrls.dram.rank1.selfRefreshEnergy            0                       # Energy for self refresh per rank (pJ)
system.mem_ctrls.dram.rank1.totalEnergy   45397589370                       # Total energy per rank (pJ)
system.mem_ctrls.dram.rank1.averagePower   521.577585                       # Core power per rank (mW)
system.mem_ctrls.dram.rank1.totalIdleTime            0                       # Total Idle time Per DRAM Rank
system.mem_ctrls.dram.rank1.pwrStateTime::IDLE  37690459500                       # Time in different power states
system.mem_ctrls.dram.rank1.pwrStateTime::REF   2906280000                       # Time in different power states
system.mem_ctrls.dram.rank1.pwrStateTime::SREF            0                       # Time in different power states
system.mem_ctrls.dram.rank1.pwrStateTime::PRE_PDN            0                       # Time in different power states
system.mem_ctrls.dram.rank1.pwrStateTime::ACT  46442256500                       # Time in different power states
system.mem_ctrls.dram.rank1.pwrStateTime::ACT_PDN            0                       # Time in different power states
system.mem_ctrls.power_state.pwrStateResidencyTicks::UNDEFINED  87038996000                       # Cumulative time (in ticks) in various power states
system.membus.trans_dist::ReadResp              65731                       # Transaction distribution
system.membus.trans_dist::WritebackDirty       111032                       # Transaction distribution
system.membus.trans_dist::CleanEvict            57676                       # Transaction distribution
system.membus.trans_dist::ReadExReq            136083                       # Transaction distribution
system.membus.trans_dist::ReadExResp           136083                       # Transaction distribution
system.membus.trans_dist::ReadSharedReq         65731                       # Transaction distribution
system.membus.pkt_count_system.l2.mem_side_port::system.mem_ctrls.port       572336                       # Packet count per connected requestor and responder (bytes)
system.membus.pkt_count::total                 572336                       # Packet count per connected requestor and responder (bytes)
system.membus.pkt_size_system.l2.mem_side_port::system.mem_ctrls.port     20022144                       # Cumulative packet size per connected requestor and responder (bytes)
system.membus.pkt_size::total                20022144                       # Cumulative packet size per connected requestor and responder (bytes)
system.membus.snoops                                0                       # Total snoops (count)
system.membus.snoopTraffic                          0                       # Total snoop traffic (bytes)
system.membus.snoop_fanout::samples            201814                       # Request fanout histogram
system.membus.snoop_fanout::mean                    0                       # Request fanout histogram
system.membus.snoop_fanout::stdev                   0                       # Request fanout histogram
system.membus.snoop_fanout::underflows              0      0.00%      0.00% # Request fanout histogram
system.membus.snoop_fanout::0                  201814    100.00%    100.00% # Request fanout histogram
system.membus.snoop_fanout::1                       0      0.00%    100.00% # Request fanout histogram
system.membus.snoop_fanout::overflows               0      0.00%    100.00% # Request fanout histogram
system.membus.snoop_fanout::min_value               0                       # Request fanout histogram
system.membus.snoop_fanout::max_value               0                       # Request fanout histogram
system.membus.snoop_fanout::total              201814                       # Request fanout histogram
system.membus.power_state.pwrStateResidencyTicks::UNDEFINED  87038996000                       # Cumulative time (in ticks) in various power states
system.membus.reqLayer0.occupancy           852378000                       # Layer occupancy (ticks)
system.membus.reqLayer0.utilization               1.0                       # Layer utilization (%)
system.membus.respLayer1.occupancy         1086860250                       # Layer occupancy (ticks)
system.membus.respLayer1.utilization              1.2                       # Layer utilization (%)
system.tol2bus.trans_dist::ReadResp            668094                       # Transaction distribution
system.tol2bus.trans_dist::WritebackDirty      1100208                       # Transaction distribution
system.tol2bus.trans_dist::WritebackClean          333                       # Transaction distribution
system.tol2bus.trans_dist::CleanEvict          141370                       # Transaction distribution
system.tol2bus.trans_dist::ReadExReq           405337                       # Transaction distribution
system.tol2bus.trans_dist::ReadExResp          405337                       # Transaction distribution
system.tol2bus.trans_dist::ReadCleanReq           773                       # Transaction distribution
system.tol2bus.trans_dist::ReadSharedReq       667321                       # Transaction distribution
system.tol2bus.pkt_count_system.cpu.icache.mem_side_port::system.l2.cpu_side_port         1879                       # Packet count per connected requestor and responder (bytes)
system.tol2bus.pkt_count_system.cpu.dcache.mem_side_port::system.l2.cpu_side_port      3217718                       # Packet count per connected requestor and responder (bytes)
system.tol2bus.pkt_count::total               3219597                       # Packet count per connected requestor and responder (bytes)
system.tol2bus.pkt_size_system.cpu.icache.mem_side_port::system.l2.cpu_side_port        70784                       # Cumulative packet size per connected requestor and responder (bytes)
system.tol2bus.pkt_size_system.cpu.dcache.mem_side_port::system.l2.cpu_side_port    131957376                       # Cumulative packet size per connected requestor and responder (bytes)
system.tol2bus.pkt_size::total              132028160                       # Cumulative packet size per connected requestor and responder (bytes)
system.tol2bus.snoops                          169176                       # Total snoops (count)
system.tol2bus.snoopTraffic                   7106048                       # Total snoop traffic (bytes)
system.tol2bus.snoop_fanout::samples          1242607                       # Request fanout histogram
system.tol2bus.snoop_fanout::mean            0.000930                       # Request fanout histogram
system.tol2bus.snoop_fanout::stdev           0.030487                       # Request fanout histogram
system.tol2bus.snoop_fanout::underflows             0      0.00%      0.00% # Request fanout histogram
system.tol2bus.snoop_fanout::0                1241451     99.91%     99.91% # Request fanout histogram
system.tol2bus.snoop_fanout::1                   1156      0.09%    100.00% # Request fanout histogram
system.tol2bus.snoop_fanout::2                      0      0.00%    100.00% # Request fanout histogram
system.tol2bus.snoop_fanout::overflows              0      0.00%    100.00% # Request fanout histogram
system.tol2bus.snoop_fanout::min_value              0                       # Request fanout histogram
system.tol2bus.snoop_fanout::max_value              1                       # Request fanout histogram
system.tol2bus.snoop_fanout::total            1242607                       # Request fanout histogram
system.tol2bus.power_state.pwrStateResidencyTicks::UNDEFINED  87038996000                       # Cumulative time (in ticks) in various power states
system.tol2bus.reqLayer0.occupancy         2062592000                       # Layer occupancy (ticks)
system.tol2bus.reqLayer0.utilization              2.4                       # Layer utilization (%)
system.tol2bus.respLayer0.occupancy           1159500                       # Layer occupancy (ticks)
system.tol2bus.respLayer0.utilization             0.0                       # Layer utilization (%)
system.tol2bus.respLayer1.occupancy        1608989994                       # Layer occupancy (ticks)
system.tol2bus.respLayer1.utilization             1.8                       # Layer utilization (%)
system.voltage_domain.voltage                       1                       # Voltage in Volts

---------- End Simulation Statistics   ----------
