
---------- Begin Simulation Statistics ----------
final_tick                                   47342500                       # Number of ticks from beginning of simulation (restored from checkpoints and never reset)
host_inst_rate                                  65888                       # Simulator instruction rate (inst/s)
host_mem_usage                                 716280                       # Number of bytes of host memory used
host_op_rate                                    75365                       # Simulator op (including micro ops) rate (op/s)
host_seconds                                     0.15                       # Real time elapsed on the host
host_tick_rate                              305434441                       # Simulator tick rate (ticks/s)
sim_freq                                 1000000000000                       # Frequency of simulated ticks
sim_insts                                       10204                       # Number of instructions simulated
sim_ops                                         11680                       # Number of ops (including micro ops) simulated
sim_seconds                                  0.000047                       # Number of seconds simulated
sim_ticks                                    47342500                       # Number of ticks simulated
system.cpu.committedInsts                       10204                       # Number of instructions committed
system.cpu.committedOps                         11680                       # Number of ops (including micro ops) committed
system.cpu.cpi                               9.279204                       # CPI: cycles per instruction
system.cpu.discardedOps                          2006                       # Number of ops (including micro ops) which were discarded before commit
system.cpu.idleCycles                           75229                       # Total number of cycles that the object has spent stopped
system.cpu.ipc                               0.107768                       # IPC: instructions per cycle
system.cpu.numCycles                            94685                       # number of cpu cycles simulated
system.cpu.numFetchSuspends                         0                       # Number of times Execute suspended instruction fetching
system.cpu.numWorkItemsCompleted                    0                       # number of work items this cpu completed
system.cpu.numWorkItemsStarted                      0                       # number of work items this cpu started
system.cpu.op_class_0::No_OpClass                   0      0.00%      0.00% # Class of committed instruction
system.cpu.op_class_0::IntAlu                    8104     69.38%     69.38% # Class of committed instruction
system.cpu.op_class_0::IntMult                     62      0.53%     69.91% # Class of committed instruction
system.cpu.op_class_0::IntDiv                       0      0.00%     69.91% # Class of committed instruction
system.cpu.op_class_0::FloatAdd                     0      0.00%     69.91% # Class of committed instruction
system.cpu.op_class_0::FloatCmp                     0      0.00%     69.91% # Class of committed instruction
system.cpu.op_class_0::FloatCvt                     0      0.00%     69.91% # Class of committed instruction
system.cpu.op_class_0::FloatMult                    0      0.00%     69.91% # Class of committed instruction
system.cpu.op_class_0::FloatMultAcc                 0      0.00%     69.91% # Class of committed instruction
system.cpu.op_class_0::FloatDiv                     0      0.00%     69.91% # Class of committed instruction
system.cpu.op_class_0::FloatMisc                    0      0.00%     69.91% # Class of committed instruction
system.cpu.op_class_0::FloatSqrt                    0      0.00%     69.91% # Class of committed instruction
system.cpu.op_class_0::SimdAdd                      0      0.00%     69.91% # Class of committed instruction
system.cpu.op_class_0::SimdAddAcc                   0      0.00%     69.91% # Class of committed instruction
system.cpu.op_class_0::SimdAlu                      0      0.00%     69.91% # Class of committed instruction
system.cpu.op_class_0::SimdCmp                      0      0.00%     69.91% # Class of committed instruction
system.cpu.op_class_0::SimdCvt                      0      0.00%     69.91% # Class of committed instruction
system.cpu.op_class_0::SimdMisc                     0      0.00%     69.91% # Class of committed instruction
system.cpu.op_class_0::SimdMult                     0      0.00%     69.91% # Class of committed instruction
system.cpu.op_class_0::SimdMultAcc                  0      0.00%     69.91% # Class of committed instruction
system.cpu.op_class_0::SimdShift                    0      0.00%     69.91% # Class of committed instruction
system.cpu.op_class_0::SimdShiftAcc                 0      0.00%     69.91% # Class of committed instruction
system.cpu.op_class_0::SimdDiv                      0      0.00%     69.91% # Class of committed instruction
system.cpu.op_class_0::SimdSqrt                     0      0.00%     69.91% # Class of committed instruction
system.cpu.op_class_0::SimdFloatAdd                 0      0.00%     69.91% # Class of committed instruction
system.cpu.op_class_0::SimdFloatAlu                 0      0.00%     69.91% # Class of committed instruction
system.cpu.op_class_0::SimdFloatCmp                 0      0.00%     69.91% # Class of committed instruction
system.cpu.op_class_0::SimdFloatCvt                 0      0.00%     69.91% # Class of committed instruction
system.cpu.op_class_0::SimdFloatDiv                 0      0.00%     69.91% # Class of committed instruction
system.cpu.op_class_0::SimdFloatMisc                0      0.00%     69.91% # Class of committed instruction
system.cpu.op_class_0::SimdFloatMult                0      0.00%     69.91% # Class of committed instruction
system.cpu.op_class_0::SimdFloatMultAcc             0      0.00%     69.91% # Class of committed instruction
system.cpu.op_class_0::SimdFloatSqrt                0      0.00%     69.91% # Class of committed instruction
system.cpu.op_class_0::SimdReduceAdd                0      0.00%     69.91% # Class of committed instruction
system.cpu.op_class_0::SimdReduceAlu                0      0.00%     69.91% # Class of committed instruction
system.cpu.op_class_0::SimdReduceCmp                0      0.00%     69.91% # Class of committed instruction
system.cpu.op_class_0::SimdFloatReduceAdd            0      0.00%     69.91% # Class of committed instruction
system.cpu.op_class_0::SimdFloatReduceCmp            0      0.00%     69.91% # Class of committed instruction
system.cpu.op_class_0::SimdAes                      0      0.00%     69.91% # Class of committed instruction
system.cpu.op_class_0::SimdAesMix                   0      0.00%     69.91% # Class of committed instruction
system.cpu.op_class_0::SimdSha1Hash                 0      0.00%     69.91% # Class of committed instruction
system.cpu.op_class_0::SimdSha1Hash2                0      0.00%     69.91% # Class of committed instruction
system.cpu.op_class_0::SimdSha256Hash               0      0.00%     69.91% # Class of committed instruction
system.cpu.op_class_0::SimdSha256Hash2              0      0.00%     69.91% # Class of committed instruction
system.cpu.op_class_0::SimdShaSigma2                0      0.00%     69.91% # Class of committed instruction
system.cpu.op_class_0::SimdShaSigma3                0      0.00%     69.91% # Class of committed instruction
system.cpu.op_class_0::SimdPredAlu                  0      0.00%     69.91% # Class of committed instruction
system.cpu.op_class_0::MemRead                   1805     15.45%     85.37% # Class of committed instruction
system.cpu.op_class_0::MemWrite                  1709     14.63%    100.00% # Class of committed instruction
system.cpu.op_class_0::FloatMemRead                 0      0.00%    100.00% # Class of committed instruction
system.cpu.op_class_0::FloatMemWrite                0      0.00%    100.00% # Class of committed instruction
system.cpu.op_class_0::IprAccess                    0      0.00%    100.00% # Class of committed instruction
system.cpu.op_class_0::InstPrefetch                 0      0.00%    100.00% # Class of committed instruction
system.cpu.op_class_0::total                    11680                       # Class of committed instruction
system.cpu.tickCycles                           19456                       # Number of cycles that the object actually ticked
system.cpu.workload.numSyscalls                    13                       # Number of system calls
system.membus.snoop_filter.hit_multi_requests            0                       # Number of requests hitting in the snoop filter with multiple (>1) holders of the requested data.
system.membus.snoop_filter.hit_multi_snoops            0                       # Number of snoops hitting in the snoop filter with multiple (>1) holders of the requested data.
system.membus.snoop_filter.hit_single_requests            0                       # Number of requests hitting in the snoop filter with a single holder of the requested data.
system.membus.snoop_filter.hit_single_snoops            0                       # Number of snoops hitting in the snoop filter with a single holder of the requested data.
system.membus.snoop_filter.tot_requests           608                       # Total number of requests made to the snoop filter.
system.membus.snoop_filter.tot_snoops               0                       # Total number of snoops made to the snoop filter.
system.tol2bus.snoop_filter.hit_multi_requests            6                       # Number of requests hitting in the snoop filter with multiple (>1) holders of the requested data.
system.tol2bus.snoop_filter.hit_multi_snoops            0                       # Number of snoops hitting in the snoop filter with multiple (>1) holders of the requested data.
system.tol2bus.snoop_filter.hit_single_requests          119                       # Number of requests hitting in the snoop filter with a single holder of the requested data.
system.tol2bus.snoop_filter.hit_single_snoops            0                       # Number of snoops hitting in the snoop filter with a single holder of the requested data.
system.tol2bus.snoop_filter.tot_requests          750                       # Total number of requests made to the snoop filter.
system.tol2bus.snoop_filter.tot_snoops              0                       # Total number of snoops made to the snoop filter.
system.clk_domain.clock                          1000                       # Clock period in ticks
system.cpu.branchPred.lookups                    3248                       # Number of BP lookups
system.cpu.branchPred.condPredicted              2098                       # Number of conditional branches predicted
system.cpu.branchPred.condIncorrect               599                       # Number of conditional branches incorrect
system.cpu.branchPred.BTBLookups                 1686                       # Number of BTB lookups
system.cpu.branchPred.BTBHits                     703                       # Number of BTB hits
system.cpu.branchPred.BTBHitPct             41.696323                       # BTB Hit Percentage
system.cpu.branchPred.RASUsed                     277                       # Number of times the RAS was used to get a target.
system.cpu.branchPred.RASIncorrect                  2                       # Number of incorrect RAS predictions.
system.cpu.branchPred.indirectLookups             150                       # Number of indirect predictor lookups.
system.cpu.branchPred.indirectHits                 14                       # Number of indirect target hits.
system.cpu.branchPred.indirectMisses              136                       # Number of indirect misses.
system.cpu.branchPred.indirectMispredicted           70                       # Number of mispredicted indirect branches.
system.cpu.dcache.demand_hits::.cpu.data         3378                       # number of demand (read+write) hits
system.cpu.dcache.demand_hits::total             3378                       # number of demand (read+write) hits
system.cpu.dcache.overall_hits::.cpu.data         3407                       # number of overall hits
system.cpu.dcache.overall_hits::total            3407                       # number of overall hits
system.cpu.dcache.demand_misses::.cpu.data          237                       # number of demand (read+write) misses
system.cpu.dcache.demand_misses::total            237                       # number of demand (read+write) misses
system.cpu.dcache.overall_misses::.cpu.data          257                       # number of overall misses
system.cpu.dcache.overall_misses::total           257                       # number of overall misses
system.cpu.dcache.demand_miss_latency::.cpu.data     19301000                       # number of demand (read+write) miss cycles
system.cpu.dcache.demand_miss_latency::total     19301000                       # number of demand (read+write) miss cycles
system.cpu.dcache.overall_miss_latency::.cpu.data     19301000                       # number of overall miss cycles
system.cpu.dcache.overall_miss_latency::total     19301000                       # number of overall miss cycles
system.cpu.dcache.demand_accesses::.cpu.data         3615                       # number of demand (read+write) accesses
system.cpu.dcache.demand_accesses::total         3615                       # number of demand (read+write) accesses
system.cpu.dcache.overall_accesses::.cpu.data         3664                       # number of overall (read+write) accesses
system.cpu.dcache.overall_accesses::total         3664                       # number of overall (read+write) accesses
system.cpu.dcache.demand_miss_rate::.cpu.data     0.065560                       # miss rate for demand accesses
system.cpu.dcache.demand_miss_rate::total     0.065560                       # miss rate for demand accesses
system.cpu.dcache.overall_miss_rate::.cpu.data     0.070142                       # miss rate for overall accesses
system.cpu.dcache.overall_miss_rate::total     0.070142                       # miss rate for overall accesses
system.cpu.dcache.demand_avg_miss_latency::.cpu.data 81438.818565                       # average overall miss latency
system.cpu.dcache.demand_avg_miss_latency::total 81438.818565                       # average overall miss latency
system.cpu.dcache.overall_avg_miss_latency::.cpu.data 75101.167315                       # average overall miss latency
system.cpu.dcache.overall_avg_miss_latency::total 75101.167315                       # average overall miss latency
system.cpu.dcache.blocked_cycles::no_mshrs            0                       # number of cycles access was blocked
system.cpu.dcache.blocked_cycles::no_targets            0                       # number of cycles access was blocked
system.cpu.dcache.blocked::no_mshrs                 0                       # number of cycles access was blocked
system.cpu.dcache.blocked::no_targets               0                       # number of cycles access was blocked
system.cpu.dcache.avg_blocked_cycles::no_mshrs          nan                       # average number of cycles each access was blocked
system.cpu.dcache.avg_blocked_cycles::no_targets          nan                       # average number of cycles each access was blocked
system.cpu.dcache.writebacks::.writebacks            1                       # number of writebacks
system.cpu.dcache.writebacks::total                 1                       # number of writebacks
system.cpu.dcache.demand_mshr_hits::.cpu.data           58                       # number of demand (read+write) MSHR hits
system.cpu.dcache.demand_mshr_hits::total           58                       # number of demand (read+write) MSHR hits
system.cpu.dcache.overall_mshr_hits::.cpu.data           58                       # number of overall MSHR hits
system.cpu.dcache.overall_mshr_hits::total           58                       # number of overall MSHR hits
system.cpu.dcache.demand_mshr_misses::.cpu.data          179                       # number of demand (read+write) MSHR misses
system.cpu.dcache.demand_mshr_misses::total          179                       # number of demand (read+write) MSHR misses
system.cpu.dcache.overall_mshr_misses::.cpu.data          194                       # number of overall MSHR misses
system.cpu.dcache.overall_mshr_misses::total          194                       # number of overall MSHR misses
system.cpu.dcache.demand_mshr_miss_latency::.cpu.data     14389500                       # number of demand (read+write) MSHR miss cycles
system.cpu.dcache.demand_mshr_miss_latency::total     14389500                       # number of demand (read+write) MSHR miss cycles
system.cpu.dcache.overall_mshr_miss_latency::.cpu.data     15547500                       # number of overall MSHR miss cycles
system.cpu.dcache.overall_mshr_miss_latency::total     15547500                       # number of overall MSHR miss cycles
system.cpu.dcache.demand_mshr_miss_rate::.cpu.data     0.049516                       # mshr miss rate for demand accesses
system.cpu.dcache.demand_mshr_miss_rate::total     0.049516                       # mshr miss rate for demand accesses
system.cpu.dcache.overall_mshr_miss_rate::.cpu.data     0.052948                       # mshr miss rate for overall accesses
system.cpu.dcache.overall_mshr_miss_rate::total     0.052948                       # mshr miss rate for overall accesses
system.cpu.dcache.demand_avg_mshr_miss_latency::.cpu.data 80388.268156                       # average overall mshr miss latency
system.cpu.dcache.demand_avg_mshr_miss_latency::total 80388.268156                       # average overall mshr miss latency
system.cpu.dcache.overall_avg_mshr_miss_latency::.cpu.data 80141.752577                       # average overall mshr miss latency
system.cpu.dcache.overall_avg_mshr_miss_latency::total 80141.752577                       # average overall mshr miss latency
system.cpu.dcache.replacements                      3                       # number of replacements
system.cpu.dcache.ReadReq_hits::.cpu.data         1854                       # number of ReadReq hits
system.cpu.dcache.ReadReq_hits::total            1854                       # number of ReadReq hits
system.cpu.dcache.ReadReq_misses::.cpu.data          108                       # number of ReadReq misses
system.cpu.dcache.ReadReq_misses::total           108                       # number of ReadReq misses
system.cpu.dcache.ReadReq_miss_latency::.cpu.data      8440000                       # number of ReadReq miss cycles
system.cpu.dcache.ReadReq_miss_latency::total      8440000                       # number of ReadReq miss cycles
system.cpu.dcache.ReadReq_accesses::.cpu.data         1962                       # number of ReadReq accesses(hits+misses)
system.cpu.dcache.ReadReq_accesses::total         1962                       # number of ReadReq accesses(hits+misses)
system.cpu.dcache.ReadReq_miss_rate::.cpu.data     0.055046                       # miss rate for ReadReq accesses
system.cpu.dcache.ReadReq_miss_rate::total     0.055046                       # miss rate for ReadReq accesses
system.cpu.dcache.ReadReq_avg_miss_latency::.cpu.data 78148.148148                       # average ReadReq miss latency
system.cpu.dcache.ReadReq_avg_miss_latency::total 78148.148148                       # average ReadReq miss latency
system.cpu.dcache.ReadReq_mshr_hits::.cpu.data            5                       # number of ReadReq MSHR hits
system.cpu.dcache.ReadReq_mshr_hits::total            5                       # number of ReadReq MSHR hits
system.cpu.dcache.ReadReq_mshr_misses::.cpu.data          103                       # number of ReadReq MSHR misses
system.cpu.dcache.ReadReq_mshr_misses::total          103                       # number of ReadReq MSHR misses
system.cpu.dcache.ReadReq_mshr_miss_latency::.cpu.data      7984500                       # number of ReadReq MSHR miss cycles
system.cpu.dcache.ReadReq_mshr_miss_latency::total      7984500                       # number of ReadReq MSHR miss cycles
system.cpu.dcache.ReadReq_mshr_miss_rate::.cpu.data     0.052497                       # mshr miss rate for ReadReq accesses
system.cpu.dcache.ReadReq_mshr_miss_rate::total     0.052497                       # mshr miss rate for ReadReq accesses
system.cpu.dcache.ReadReq_avg_mshr_miss_latency::.cpu.data 77519.417476                       # average ReadReq mshr miss latency
system.cpu.dcache.ReadReq_avg_mshr_miss_latency::total 77519.417476                       # average ReadReq mshr miss latency
system.cpu.dcache.WriteReq_hits::.cpu.data         1524                       # number of WriteReq hits
system.cpu.dcache.WriteReq_hits::total           1524                       # number of WriteReq hits
system.cpu.dcache.WriteReq_misses::.cpu.data          129                       # number of WriteReq misses
system.cpu.dcache.WriteReq_misses::total          129                       # number of WriteReq misses
system.cpu.dcache.WriteReq_miss_latency::.cpu.data     10861000                       # number of WriteReq miss cycles
system.cpu.dcache.WriteReq_miss_latency::total     10861000                       # number of WriteReq miss cycles
system.cpu.dcache.WriteReq_accesses::.cpu.data         1653                       # number of WriteReq accesses(hits+misses)
system.cpu.dcache.WriteReq_accesses::total         1653                       # number of WriteReq accesses(hits+misses)
system.cpu.dcache.WriteReq_miss_rate::.cpu.data     0.078040                       # miss rate for WriteReq accesses
system.cpu.dcache.WriteReq_miss_rate::total     0.078040                       # miss rate for WriteReq accesses
system.cpu.dcache.WriteReq_avg_miss_latency::.cpu.data 84193.798450                       # average WriteReq miss latency
system.cpu.dcache.WriteReq_avg_miss_latency::total 84193.798450                       # average WriteReq miss latency
system.cpu.dcache.WriteReq_mshr_hits::.cpu.data           53                       # number of WriteReq MSHR hits
system.cpu.dcache.WriteReq_mshr_hits::total           53                       # number of WriteReq MSHR hits
system.cpu.dcache.WriteReq_mshr_misses::.cpu.data           76                       # number of WriteReq MSHR misses
system.cpu.dcache.WriteReq_mshr_misses::total           76                       # number of WriteReq MSHR misses
system.cpu.dcache.WriteReq_mshr_miss_latency::.cpu.data      6405000                       # number of WriteReq MSHR miss cycles
system.cpu.dcache.WriteReq_mshr_miss_latency::total      6405000                       # number of WriteReq MSHR miss cycles
system.cpu.dcache.WriteReq_mshr_miss_rate::.cpu.data     0.045977                       # mshr miss rate for WriteReq accesses
system.cpu.dcache.WriteReq_mshr_miss_rate::total     0.045977                       # mshr miss rate for WriteReq accesses
system.cpu.dcache.WriteReq_avg_mshr_miss_latency::.cpu.data 84276.315789                       # average WriteReq mshr miss latency
system.cpu.dcache.WriteReq_avg_mshr_miss_latency::total 84276.315789                       # average WriteReq mshr miss latency
system.cpu.dcache.SoftPFReq_hits::.cpu.data           29                       # number of SoftPFReq hits
system.cpu.dcache.SoftPFReq_hits::total            29                       # number of SoftPFReq hits
system.cpu.dcache.SoftPFReq_misses::.cpu.data           20                       # number of SoftPFReq misses
system.cpu.dcache.SoftPFReq_misses::total           20                       # number of SoftPFReq misses
system.cpu.dcache.SoftPFReq_accesses::.cpu.data           49                       # number of SoftPFReq accesses(hits+misses)
system.cpu.dcache.SoftPFReq_accesses::total           49                       # number of SoftPFReq accesses(hits+misses)
system.cpu.dcache.SoftPFReq_miss_rate::.cpu.data     0.408163                       # miss rate for SoftPFReq accesses
system.cpu.dcache.SoftPFReq_miss_rate::total     0.408163                       # miss rate for SoftPFReq accesses
system.cpu.dcache.SoftPFReq_mshr_misses::.cpu.data           15                       # number of SoftPFReq MSHR misses
system.cpu.dcache.SoftPFReq_mshr_misses::total           15                       # number of SoftPFReq MSHR misses
system.cpu.dcache.SoftPFReq_mshr_miss_latency::.cpu.data      1158000                       # number of SoftPFReq MSHR miss cycles
system.cpu.dcache.SoftPFReq_mshr_miss_latency::total      1158000                       # number of SoftPFReq MSHR miss cycles
system.cpu.dcache.SoftPFReq_mshr_miss_rate::.cpu.data     0.306122                       # mshr miss rate for SoftPFReq accesses
system.cpu.dcache.SoftPFReq_mshr_miss_rate::total     0.306122                       # mshr miss rate for SoftPFReq accesses
system.cpu.dcache.SoftPFReq_avg_mshr_miss_latency::.cpu.data        77200                       # average SoftPFReq mshr miss latency
system.cpu.dcache.SoftPFReq_avg_mshr_miss_latency::total        77200                       # average SoftPFReq mshr miss latency
system.cpu.dcache.LoadLockedReq_hits::.cpu.data           19                       # number of LoadLockedReq hits
system.cpu.dcache.LoadLockedReq_hits::total           19                       # number of LoadLockedReq hits
system.cpu.dcache.LoadLockedReq_misses::.cpu.data            1                       # number of LoadLockedReq misses
system.cpu.dcache.LoadLockedReq_misses::total            1                       # number of LoadLockedReq misses
system.cpu.dcache.LoadLockedReq_miss_latency::.cpu.data        72000                       # number of LoadLockedReq miss cycles
system.cpu.dcache.LoadLockedReq_miss_latency::total        72000                       # number of LoadLockedReq miss cycles
system.cpu.dcache.LoadLockedReq_accesses::.cpu.data           20                       # number of LoadLockedReq accesses(hits+misses)
system.cpu.dcache.LoadLockedReq_accesses::total           20                       # number of LoadLockedReq accesses(hits+misses)
system.cpu.dcache.LoadLockedReq_miss_rate::.cpu.data     0.050000                       # miss rate for LoadLockedReq accesses
system.cpu.dcache.LoadLockedReq_miss_rate::total     0.050000                       # miss rate for LoadLockedReq accesses
system.cpu.dcache.LoadLockedReq_avg_miss_latency::.cpu.data        72000                       # average LoadLockedReq miss latency
system.cpu.dcache.LoadLockedReq_avg_miss_latency::total        72000                       # average LoadLockedReq miss latency
system.cpu.dcache.LoadLockedReq_mshr_misses::.cpu.data            1                       # number of LoadLockedReq MSHR misses
system.cpu.dcache.LoadLockedReq_mshr_misses::total            1                       # number of LoadLockedReq MSHR misses
system.cpu.dcache.LoadLockedReq_mshr_miss_latency::.cpu.data        71000                       # number of LoadLockedReq MSHR miss cycles
system.cpu.dcache.LoadLockedReq_mshr_miss_latency::total        71000                       # number of LoadLockedReq MSHR miss cycles
system.cpu.dcache.LoadLockedReq_mshr_miss_rate::.cpu.data     0.050000                       # mshr miss rate for LoadLockedReq accesses
system.cpu.dcache.LoadLockedReq_mshr_miss_rate::total     0.050000                       # mshr miss rate for LoadLockedReq accesses
system.cpu.dcache.LoadLockedReq_avg_mshr_miss_latency::.cpu.data        71000                       # average LoadLockedReq mshr miss latency
system.cpu.dcache.LoadLockedReq_avg_mshr_miss_latency::total        71000                       # average LoadLockedReq mshr miss latency
system.cpu.dcache.StoreCondReq_hits::.cpu.data           20                       # number of StoreCondReq hits
system.cpu.dcache.StoreCondReq_hits::total           20                       # number of StoreCondReq hits
system.cpu.dcache.StoreCondReq_accesses::.cpu.data           20                       # number of StoreCondReq accesses(hits+misses)
system.cpu.dcache.StoreCondReq_accesses::total           20                       # number of StoreCondReq accesses(hits+misses)
system.cpu.dcache.power_state.pwrStateResidencyTicks::UNDEFINED     47342500                       # Cumulative time (in ticks) in various power states
system.cpu.dcache.tags.tagsinuse           107.360798                       # Cycle average of tags in use
system.cpu.dcache.tags.total_refs                3641                       # Total number of references to valid blocks.
system.cpu.dcache.tags.sampled_refs               195                       # Sample count of references to valid blocks.
system.cpu.dcache.tags.avg_refs             18.671795                       # Average number of references to valid blocks.
system.cpu.dcache.tags.warmup_cycle            176500                       # Cycle when the warmup percentage was hit.
system.cpu.dcache.tags.occ_blocks::.cpu.data   107.360798                       # Average occupied blocks per requestor
system.cpu.dcache.tags.occ_percent::.cpu.data     0.104845                       # Average percentage of cache occupancy
system.cpu.dcache.tags.occ_percent::total     0.104845                       # Average percentage of cache occupancy
system.cpu.dcache.tags.occ_task_id_blocks::1024          192                       # Occupied blocks per task id
system.cpu.dcache.tags.age_task_id_blocks_1024::0           36                       # Occupied blocks per task id
system.cpu.dcache.tags.age_task_id_blocks_1024::1          156                       # Occupied blocks per task id
system.cpu.dcache.tags.occ_task_id_percent::1024     0.187500                       # Percentage of cache occupancy per task id
system.cpu.dcache.tags.tag_accesses              7603                       # Number of tag accesses
system.cpu.dcache.tags.data_accesses             7603                       # Number of data accesses
system.cpu.dcache.tags.power_state.pwrStateResidencyTicks::UNDEFINED     47342500                       # Cumulative time (in ticks) in various power states
system.cpu.dtb.instHits                             0                       # ITB inst hits
system.cpu.dtb.instMisses                           0                       # ITB inst misses
system.cpu.dtb.readHits                             0                       # DTB read hits
system.cpu.dtb.readMisses                           0                       # DTB read misses
system.cpu.dtb.writeHits                            0                       # DTB write hits
system.cpu.dtb.writeMisses                          0                       # DTB write misses
system.cpu.dtb.inserts                              0                       # Number of times an entry is inserted into the TLB
system.cpu.dtb.flushTlb                             0                       # Number of times complete TLB was flushed
system.cpu.dtb.flushTlbMva                          0                       # Number of times TLB was flushed by MVA
system.cpu.dtb.flushTlbMvaAsid                      0                       # Number of times TLB was flushed by MVA & ASID
system.cpu.dtb.flushTlbAsid                         0                       # Number of times TLB was flushed by ASID
system.cpu.dtb.flushedEntries                       0                       # Number of entries that have been flushed from TLB
system.cpu.dtb.alignFaults                          0                       # Number of TLB faults due to alignment restrictions
system.cpu.dtb.prefetchFaults                       0                       # Number of TLB faults due to prefetch
system.cpu.dtb.domainFaults                         0                       # Number of TLB faults due to domain restrictions
system.cpu.dtb.permsFaults                          0                       # Number of TLB faults due to permissions restrictions
system.cpu.dtb.readAccesses                         0                       # DTB read accesses
system.cpu.dtb.writeAccesses                        0                       # DTB write accesses
system.cpu.dtb.instAccesses                         0                       # ITB inst accesses
system.cpu.dtb.hits                                 0                       # Total TLB (inst and data) hits
system.cpu.dtb.misses                               0                       # Total TLB (inst and data) misses
system.cpu.dtb.accesses                             0                       # Total TLB (inst and data) accesses
system.cpu.dtb.stage2_mmu.stage2_tlb.instHits            0                       # ITB inst hits
system.cpu.dtb.stage2_mmu.stage2_tlb.instMisses            0                       # ITB inst misses
system.cpu.dtb.stage2_mmu.stage2_tlb.readHits            0                       # DTB read hits
system.cpu.dtb.stage2_mmu.stage2_tlb.readMisses            0                       # DTB read misses
system.cpu.dtb.stage2_mmu.stage2_tlb.writeHits            0                       # DTB write hits
system.cpu.dtb.stage2_mmu.stage2_tlb.writeMisses            0                       # DTB write misses
system.cpu.dtb.stage2_mmu.stage2_tlb.inserts            0                       # Number of times an entry is inserted into the TLB
system.cpu.dtb.stage2_mmu.stage2_tlb.flushTlb            0                       # Number of times complete TLB was flushed
system.cpu.dtb.stage2_mmu.stage2_tlb.flushTlbMva            0                       # Number of times TLB was flushed by MVA
system.cpu.dtb.stage2_mmu.stage2_tlb.flushTlbMvaAsid            0                       # Number of times TLB was flushed by MVA & ASID
system.cpu.dtb.stage2_mmu.stage2_tlb.flushTlbAsid            0                       # Number of times TLB was flushed by ASID
system.cpu.dtb.stage2_mmu.stage2_tlb.flushedEntries            0                       # Number of entries that have been flushed from TLB
system.cpu.dtb.stage2_mmu.stage2_tlb.alignFaults            0                       # Number of TLB faults due to alignment restrictions
system.cpu.dtb.stage2_mmu.stage2_tlb.prefetchFaults            0                       # Number of TLB faults due to prefetch
system.cpu.dtb.stage2_mmu.stage2_tlb.domainFaults            0                       # Number of TLB faults due to domain restrictions
system.cpu.dtb.stage2_mmu.stage2_tlb.permsFaults            0                       # Number of TLB faults due to permissions restrictions
system.cpu.dtb.stage2_mmu.stage2_tlb.readAccesses            0                       # DTB read accesses
system.cpu.dtb.stage2_mmu.stage2_tlb.writeAccesses            0                       # DTB write accesses
system.cpu.dtb.stage2_mmu.stage2_tlb.instAccesses            0                       # ITB inst accesses
system.cpu.dtb.stage2_mmu.stage2_tlb.hits            0                       # Total TLB (inst and data) hits
system.cpu.dtb.stage2_mmu.stage2_tlb.misses            0                       # Total TLB (inst and data) misses
system.cpu.dtb.stage2_mmu.stage2_tlb.accesses            0                       # Total TLB (inst and data) accesses
system.cpu.dtb.stage2_mmu.stage2_tlb.walker.walks            0                       # Table walker walks requested
system.cpu.dtb.stage2_mmu.stage2_tlb.walker.requestOrigin_Requested::Data            0                       # Table walker requests started/completed, data/inst
system.cpu.dtb.stage2_mmu.stage2_tlb.walker.requestOrigin_Requested::Inst            0                       # Table walker requests started/completed, data/inst
system.cpu.dtb.stage2_mmu.stage2_tlb.walker.requestOrigin_Requested::total            0                       # Table walker requests started/completed, data/inst
system.cpu.dtb.stage2_mmu.stage2_tlb.walker.requestOrigin_Completed::Data            0                       # Table walker requests started/completed, data/inst
system.cpu.dtb.stage2_mmu.stage2_tlb.walker.requestOrigin_Completed::Inst            0                       # Table walker requests started/completed, data/inst
system.cpu.dtb.stage2_mmu.stage2_tlb.walker.requestOrigin_Completed::total            0                       # Table walker requests started/completed, data/inst
system.cpu.dtb.stage2_mmu.stage2_tlb.walker.requestOrigin::total            0                       # Table walker requests started/completed, data/inst
system.cpu.dtb.stage2_mmu.stage2_tlb.walker.power_state.pwrStateResidencyTicks::UNDEFINED     47342500                       # Cumulative time (in ticks) in various power states
system.cpu.dtb.walker.walks                         0                       # Table walker walks requested
system.cpu.dtb.walker.requestOrigin_Requested::Data            0                       # Table walker requests started/completed, data/inst
system.cpu.dtb.walker.requestOrigin_Requested::Inst            0                       # Table walker requests started/completed, data/inst
system.cpu.dtb.walker.requestOrigin_Requested::total            0                       # Table walker requests started/completed, data/inst
system.cpu.dtb.walker.requestOrigin_Completed::Data            0                       # Table walker requests started/completed, data/inst
system.cpu.dtb.walker.requestOrigin_Completed::Inst            0                       # Table walker requests started/completed, data/inst
system.cpu.dtb.walker.requestOrigin_Completed::total            0                       # Table walker requests started/completed, data/inst
system.cpu.dtb.walker.requestOrigin::total            0                       # Table walker requests started/completed, data/inst
system.cpu.dtb.walker.power_state.pwrStateResidencyTicks::UNDEFINED     47342500                       # Cumulative time (in ticks) in various power states
system.cpu.fetch2.intInstructions               10582                       # Number of integer instructions successfully decoded
system.cpu.fetch2.fpInstructions                    0                       # Number of floating point instructions successfully decoded
system.cpu.fetch2.vecInstructions                   0                       # Number of SIMD instructions successfully decoded
system.cpu.fetch2.loadInstructions               2488                       # Number of memory load instructions successfully decoded
system.cpu.fetch2.storeInstructions              1334                       # Number of memory store instructions successfully decoded
system.cpu.fetch2.amoInstructions                   0                       # Number of memory atomic instructions successfully decoded
system.cpu.icache.demand_hits::.cpu.inst         3515                       # number of demand (read+write) hits
system.cpu.icache.demand_hits::total             3515                       # number of demand (read+write) hits
system.cpu.icache.overall_hits::.cpu.inst         3515                       # number of overall hits
system.cpu.icache.overall_hits::total            3515                       # number of overall hits
system.cpu.icache.demand_misses::.cpu.inst          450                       # number of demand (read+write) misses
system.cpu.icache.demand_misses::total            450                       # number of demand (read+write) misses
system.cpu.icache.overall_misses::.cpu.inst          450                       # number of overall misses
system.cpu.icache.overall_misses::total           450                       # number of overall misses
system.cpu.icache.demand_miss_latency::.cpu.inst     33693500                       # number of demand (read+write) miss cycles
system.cpu.icache.demand_miss_latency::total     33693500                       # number of demand (read+write) miss cycles
system.cpu.icache.overall_miss_latency::.cpu.inst     33693500                       # number of overall miss cycles
system.cpu.icache.overall_miss_latency::total     33693500                       # number of overall miss cycles
system.cpu.icache.demand_accesses::.cpu.inst         3965                       # number of demand (read+write) accesses
system.cpu.icache.demand_accesses::total         3965                       # number of demand (read+write) accesses
system.cpu.icache.overall_accesses::.cpu.inst         3965                       # number of overall (read+write) accesses
system.cpu.icache.overall_accesses::total         3965                       # number of overall (read+write) accesses
system.cpu.icache.demand_miss_rate::.cpu.inst     0.113493                       # miss rate for demand accesses
system.cpu.icache.demand_miss_rate::total     0.113493                       # miss rate for demand accesses
system.cpu.icache.overall_miss_rate::.cpu.inst     0.113493                       # miss rate for overall accesses
system.cpu.icache.overall_miss_rate::total     0.113493                       # miss rate for overall accesses
system.cpu.icache.demand_avg_miss_latency::.cpu.inst 74874.444444                       # average overall miss latency
system.cpu.icache.demand_avg_miss_latency::total 74874.444444                       # average overall miss latency
system.cpu.icache.overall_avg_miss_latency::.cpu.inst 74874.444444                       # average overall miss latency
system.cpu.icache.overall_avg_miss_latency::total 74874.444444                       # average overall miss latency
system.cpu.icache.blocked_cycles::no_mshrs            0                       # number of cycles access was blocked
system.cpu.icache.blocked_cycles::no_targets            0                       # number of cycles access was blocked
system.cpu.icache.blocked::no_mshrs                 0                       # number of cycles access was blocked
system.cpu.icache.blocked::no_targets               0                       # number of cycles access was blocked
system.cpu.icache.avg_blocked_cycles::no_mshrs          nan                       # average number of cycles each access was blocked
system.cpu.icache.avg_blocked_cycles::no_targets          nan                       # average number of cycles each access was blocked
system.cpu.icache.writebacks::.writebacks          102                       # number of writebacks
system.cpu.icache.writebacks::total               102                       # number of writebacks
system.cpu.icache.demand_mshr_misses::.cpu.inst          450                       # number of demand (read+write) MSHR misses
system.cpu.icache.demand_mshr_misses::total          450                       # number of demand (read+write) MSHR misses
system.cpu.icache.overall_mshr_misses::.cpu.inst          450                       # number of overall MSHR misses
system.cpu.icache.overall_mshr_misses::total          450                       # number of overall MSHR misses
system.cpu.icache.demand_mshr_miss_latency::.cpu.inst     33243500                       # number of demand (read+write) MSHR miss cycles
system.cpu.icache.demand_mshr_miss_latency::total     33243500                       # number of demand (read+write) MSHR miss cycles
system.cpu.icache.overall_mshr_miss_latency::.cpu.inst     33243500                       # number of overall MSHR miss cycles
system.cpu.icache.overall_mshr_miss_latency::total     33243500                       # number of overall MSHR miss cycles
system.cpu.icache.demand_mshr_miss_rate::.cpu.inst     0.113493                       # mshr miss rate for demand accesses
system.cpu.icache.demand_mshr_miss_rate::total     0.113493                       # mshr miss rate for demand accesses
system.cpu.icache.overall_mshr_miss_rate::.cpu.inst     0.113493                       # mshr miss rate for overall accesses
system.cpu.icache.overall_mshr_miss_rate::total     0.113493                       # mshr miss rate for overall accesses
system.cpu.icache.demand_avg_mshr_miss_latency::.cpu.inst 73874.444444                       # average overall mshr miss latency
system.cpu.icache.demand_avg_mshr_miss_latency::total 73874.444444                       # average overall mshr miss latency
system.cpu.icache.overall_avg_mshr_miss_latency::.cpu.inst 73874.444444                       # average overall mshr miss latency
system.cpu.icache.overall_avg_mshr_miss_latency::total 73874.444444                       # average overall mshr miss latency
system.cpu.icache.replacements                    102                       # number of replacements
system.cpu.icache.ReadReq_hits::.cpu.inst         3515                       # number of ReadReq hits
system.cpu.icache.ReadReq_hits::total            3515                       # number of ReadReq hits
system.cpu.icache.ReadReq_misses::.cpu.inst          450                       # number of ReadReq misses
system.cpu.icache.ReadReq_misses::total           450                       # number of ReadReq misses
system.cpu.icache.ReadReq_miss_latency::.cpu.inst     33693500                       # number of ReadReq miss cycles
system.cpu.icache.ReadReq_miss_latency::total     33693500                       # number of ReadReq miss cycles
system.cpu.icache.ReadReq_accesses::.cpu.inst         3965                       # number of ReadReq accesses(hits+misses)
system.cpu.icache.ReadReq_accesses::total         3965                       # number of ReadReq accesses(hits+misses)
system.cpu.icache.ReadReq_miss_rate::.cpu.inst     0.113493                       # miss rate for ReadReq accesses
system.cpu.icache.ReadReq_miss_rate::total     0.113493                       # miss rate for ReadReq accesses
system.cpu.icache.ReadReq_avg_miss_latency::.cpu.inst 74874.444444                       # average ReadReq miss latency
system.cpu.icache.ReadReq_avg_miss_latency::total 74874.444444                       # average ReadReq miss latency
system.cpu.icache.ReadReq_mshr_misses::.cpu.inst          450                       # number of ReadReq MSHR misses
system.cpu.icache.ReadReq_mshr_misses::total          450                       # number of ReadReq MSHR misses
system.cpu.icache.ReadReq_mshr_miss_latency::.cpu.inst     33243500                       # number of ReadReq MSHR miss cycles
system.cpu.icache.ReadReq_mshr_miss_latency::total     33243500                       # number of ReadReq MSHR miss cycles
system.cpu.icache.ReadReq_mshr_miss_rate::.cpu.inst     0.113493                       # mshr miss rate for ReadReq accesses
system.cpu.icache.ReadReq_mshr_miss_rate::total     0.113493                       # mshr miss rate for ReadReq accesses
system.cpu.icache.ReadReq_avg_mshr_miss_latency::.cpu.inst 73874.444444                       # average ReadReq mshr miss latency
system.cpu.icache.ReadReq_avg_mshr_miss_latency::total 73874.444444                       # average ReadReq mshr miss latency
system.cpu.icache.power_state.pwrStateResidencyTicks::UNDEFINED     47342500                       # Cumulative time (in ticks) in various power states
system.cpu.icache.tags.tagsinuse           201.268208                       # Cycle average of tags in use
system.cpu.icache.tags.total_refs                3965                       # Total number of references to valid blocks.
system.cpu.icache.tags.sampled_refs               450                       # Sample count of references to valid blocks.
system.cpu.icache.tags.avg_refs              8.811111                       # Average number of references to valid blocks.
system.cpu.icache.tags.warmup_cycle             87500                       # Cycle when the warmup percentage was hit.
system.cpu.icache.tags.occ_blocks::.cpu.inst   201.268208                       # Average occupied blocks per requestor
system.cpu.icache.tags.occ_percent::.cpu.inst     0.393102                       # Average percentage of cache occupancy
system.cpu.icache.tags.occ_percent::total     0.393102                       # Average percentage of cache occupancy
system.cpu.icache.tags.occ_task_id_blocks::1024          348                       # Occupied blocks per task id
system.cpu.icache.tags.age_task_id_blocks_1024::0           96                       # Occupied blocks per task id
system.cpu.icache.tags.age_task_id_blocks_1024::1          252                       # Occupied blocks per task id
system.cpu.icache.tags.occ_task_id_percent::1024     0.679688                       # Percentage of cache occupancy per task id
system.cpu.icache.tags.tag_accesses              8380                       # Number of tag accesses
system.cpu.icache.tags.data_accesses             8380                       # Number of data accesses
system.cpu.icache.tags.power_state.pwrStateResidencyTicks::UNDEFINED     47342500                       # Cumulative time (in ticks) in various power states
system.cpu.itb.instHits                             0                       # ITB inst hits
system.cpu.itb.instMisses                           0                       # ITB inst misses
system.cpu.itb.readHits                             0                       # DTB read hits
system.cpu.itb.readMisses                           0                       # DTB read misses
system.cpu.itb.writeHits                            0                       # DTB write hits
system.cpu.itb.writeMisses                          0                       # DTB write misses
system.cpu.itb.inserts                              0                       # Number of times an entry is inserted into the TLB
system.cpu.itb.flushTlb                             0                       # Number of times complete TLB was flushed
system.cpu.itb.flushTlbMva                          0                       # Number of times TLB was flushed by MVA
system.cpu.itb.flushTlbMvaAsid                      0                       # Number of times TLB was flushed by MVA & ASID
system.cpu.itb.flushTlbAsid                         0                       # Number of times TLB was flushed by ASID
system.cpu.itb.flushedEntries                       0                       # Number of entries that have been flushed from TLB
system.cpu.itb.alignFaults                          0                       # Number of TLB faults due to alignment restrictions
system.cpu.itb.prefetchFaults                       0                       # Number of TLB faults due to prefetch
system.cpu.itb.domainFaults                         0                       # Number of TLB faults due to domain restrictions
system.cpu.itb.permsFaults                          0                       # Number of TLB faults due to permissions restrictions
system.cpu.itb.readAccesses                         0                       # DTB read accesses
system.cpu.itb.writeAccesses                        0                       # DTB write accesses
system.cpu.itb.instAccesses                         0                       # ITB inst accesses
system.cpu.itb.hits                                 0                       # Total TLB (inst and data) hits
system.cpu.itb.misses                               0                       # Total TLB (inst and data) misses
system.cpu.itb.accesses                             0                       # Total TLB (inst and data) accesses
system.cpu.itb.stage2_mmu.stage2_tlb.instHits            0                       # ITB inst hits
system.cpu.itb.stage2_mmu.stage2_tlb.instMisses            0                       # ITB inst misses
system.cpu.itb.stage2_mmu.stage2_tlb.readHits            0                       # DTB read hits
system.cpu.itb.stage2_mmu.stage2_tlb.readMisses            0                       # DTB read misses
system.cpu.itb.stage2_mmu.stage2_tlb.writeHits            0                       # DTB write hits
system.cpu.itb.stage2_mmu.stage2_tlb.writeMisses            0                       # DTB write misses
system.cpu.itb.stage2_mmu.stage2_tlb.inserts            0                       # Number of times an entry is inserted into the TLB
system.cpu.itb.stage2_mmu.stage2_tlb.flushTlb            0                       # Number of times complete TLB was flushed
system.cpu.itb.stage2_mmu.stage2_tlb.flushTlbMva            0                       # Number of times TLB was flushed by MVA
system.cpu.itb.stage2_mmu.stage2_tlb.flushTlbMvaAsid            0                       # Number of times TLB was flushed by MVA & ASID
system.cpu.itb.stage2_mmu.stage2_tlb.flushTlbAsid            0                       # Number of times TLB was flushed by ASID
system.cpu.itb.stage2_mmu.stage2_tlb.flushedEntries            0                       # Number of entries that have been flushed from TLB
system.cpu.itb.stage2_mmu.stage2_tlb.alignFaults            0                       # Number of TLB faults due to alignment restrictions
system.cpu.itb.stage2_mmu.stage2_tlb.prefetchFaults            0                       # Number of TLB faults due to prefetch
system.cpu.itb.stage2_mmu.stage2_tlb.domainFaults            0                       # Number of TLB faults due to domain restrictions
system.cpu.itb.stage2_mmu.stage2_tlb.permsFaults            0                       # Number of TLB faults due to permissions restrictions
system.cpu.itb.stage2_mmu.stage2_tlb.readAccesses            0                       # DTB read accesses
system.cpu.itb.stage2_mmu.stage2_tlb.writeAccesses            0                       # DTB write accesses
system.cpu.itb.stage2_mmu.stage2_tlb.instAccesses            0                       # ITB inst accesses
system.cpu.itb.stage2_mmu.stage2_tlb.hits            0                       # Total TLB (inst and data) hits
system.cpu.itb.stage2_mmu.stage2_tlb.misses            0                       # Total TLB (inst and data) misses
system.cpu.itb.stage2_mmu.stage2_tlb.accesses            0                       # Total TLB (inst and data) accesses
system.cpu.itb.stage2_mmu.stage2_tlb.walker.walks            0                       # Table walker walks requested
system.cpu.itb.stage2_mmu.stage2_tlb.walker.requestOrigin_Requested::Data            0                       # Table walker requests started/completed, data/inst
system.cpu.itb.stage2_mmu.stage2_tlb.walker.requestOrigin_Requested::Inst            0                       # Table walker requests started/completed, data/inst
system.cpu.itb.stage2_mmu.stage2_tlb.walker.requestOrigin_Requested::total            0                       # Table walker requests started/completed, data/inst
system.cpu.itb.stage2_mmu.stage2_tlb.walker.requestOrigin_Completed::Data            0                       # Table walker requests started/completed, data/inst
system.cpu.itb.stage2_mmu.stage2_tlb.walker.requestOrigin_Completed::Inst            0                       # Table walker requests started/completed, data/inst
system.cpu.itb.stage2_mmu.stage2_tlb.walker.requestOrigin_Completed::total            0                       # Table walker requests started/completed, data/inst
system.cpu.itb.stage2_mmu.stage2_tlb.walker.requestOrigin::total            0                       # Table walker requests started/completed, data/inst
system.cpu.itb.stage2_mmu.stage2_tlb.walker.power_state.pwrStateResidencyTicks::UNDEFINED     47342500                       # Cumulative time (in ticks) in various power states
system.cpu.itb.walker.walks                         0                       # Table walker walks requested
system.cpu.itb.walker.requestOrigin_Requested::Data            0                       # Table walker requests started/completed, data/inst
system.cpu.itb.walker.requestOrigin_Requested::Inst            0                       # Table walker requests started/completed, data/inst
system.cpu.itb.walker.requestOrigin_Requested::total            0                       # Table walker requests started/completed, data/inst
system.cpu.itb.walker.requestOrigin_Completed::Data            0                       # Table walker requests started/completed, data/inst
system.cpu.itb.walker.requestOrigin_Completed::Inst            0                       # Table walker requests started/completed, data/inst
system.cpu.itb.walker.requestOrigin_Completed::total            0                       # Table walker requests started/completed, data/inst
system.cpu.itb.walker.requestOrigin::total            0                       # Table walker requests started/completed, data/inst
system.cpu.itb.walker.power_state.pwrStateResidencyTicks::UNDEFINED     47342500                       # Cumulative time (in ticks) in various power states
system.cpu.power_state.pwrStateResidencyTicks::ON     47342500                       # Cumulative time (in ticks) in various power states
system.cpu.thread0.numInsts                     10204                       # Number of Instructions committed
system.cpu.thread0.numOps                       11680                       # Number of Ops committed
system.cpu.thread0.numMemRefs                       0                       # Number of Memory References
system.cpu_clk_domain.clock                       500                       # Clock period in ticks
system.cpu_voltage_domain.voltage                   1                       # Voltage in Volts
system.l2.demand_hits::.cpu.inst                   24                       # number of demand (read+write) hits
system.l2.demand_hits::.cpu.data                    7                       # number of demand (read+write) hits
system.l2.demand_hits::total                       31                       # number of demand (read+write) hits
system.l2.overall_hits::.cpu.inst                  24                       # number of overall hits
system.l2.overall_hits::.cpu.data                   7                       # number of overall hits
system.l2.overall_hits::total                      31                       # number of overall hits
system.l2.demand_misses::.cpu.inst                426                       # number of demand (read+write) misses
system.l2.demand_misses::.cpu.data                188                       # number of demand (read+write) misses
system.l2.demand_misses::total                    614                       # number of demand (read+write) misses
system.l2.overall_misses::.cpu.inst               426                       # number of overall misses
system.l2.overall_misses::.cpu.data               188                       # number of overall misses
system.l2.overall_misses::total                   614                       # number of overall misses
system.l2.demand_miss_latency::.cpu.inst     32309000                       # number of demand (read+write) miss cycles
system.l2.demand_miss_latency::.cpu.data     15242000                       # number of demand (read+write) miss cycles
system.l2.demand_miss_latency::total         47551000                       # number of demand (read+write) miss cycles
system.l2.overall_miss_latency::.cpu.inst     32309000                       # number of overall miss cycles
system.l2.overall_miss_latency::.cpu.data     15242000                       # number of overall miss cycles
system.l2.overall_miss_latency::total        47551000                       # number of overall miss cycles
system.l2.demand_accesses::.cpu.inst              450                       # number of demand (read+write) accesses
system.l2.demand_accesses::.cpu.data              195                       # number of demand (read+write) accesses
system.l2.demand_accesses::total                  645                       # number of demand (read+write) accesses
system.l2.overall_accesses::.cpu.inst             450                       # number of overall (read+write) accesses
system.l2.overall_accesses::.cpu.data             195                       # number of overall (read+write) accesses
system.l2.overall_accesses::total                 645                       # number of overall (read+write) accesses
system.l2.demand_miss_rate::.cpu.inst        0.946667                       # miss rate for demand accesses
system.l2.demand_miss_rate::.cpu.data        0.964103                       # miss rate for demand accesses
system.l2.demand_miss_rate::total            0.951938                       # miss rate for demand accesses
system.l2.overall_miss_rate::.cpu.inst       0.946667                       # miss rate for overall accesses
system.l2.overall_miss_rate::.cpu.data       0.964103                       # miss rate for overall accesses
system.l2.overall_miss_rate::total           0.951938                       # miss rate for overall accesses
system.l2.demand_avg_miss_latency::.cpu.inst 75842.723005                       # average overall miss latency
system.l2.demand_avg_miss_latency::.cpu.data 81074.468085                       # average overall miss latency
system.l2.demand_avg_miss_latency::total 77444.625407                       # average overall miss latency
system.l2.overall_avg_miss_latency::.cpu.inst 75842.723005                       # average overall miss latency
system.l2.overall_avg_miss_latency::.cpu.data 81074.468085                       # average overall miss latency
system.l2.overall_avg_miss_latency::total 77444.625407                       # average overall miss latency
system.l2.blocked_cycles::no_mshrs                  0                       # number of cycles access was blocked
system.l2.blocked_cycles::no_targets                0                       # number of cycles access was blocked
system.l2.blocked::no_mshrs                         0                       # number of cycles access was blocked
system.l2.blocked::no_targets                       0                       # number of cycles access was blocked
system.l2.avg_blocked_cycles::no_mshrs            nan                       # average number of cycles each access was blocked
system.l2.avg_blocked_cycles::no_targets          nan                       # average number of cycles each access was blocked
system.l2.demand_mshr_hits::.cpu.inst               1                       # number of demand (read+write) MSHR hits
system.l2.demand_mshr_hits::.cpu.data               5                       # number of demand (read+write) MSHR hits
system.l2.demand_mshr_hits::total                   6                       # number of demand (read+write) MSHR hits
system.l2.overall_mshr_hits::.cpu.inst              1                       # number of overall MSHR hits
system.l2.overall_mshr_hits::.cpu.data              5                       # number of overall MSHR hits
system.l2.overall_mshr_hits::total                  6                       # number of overall MSHR hits
system.l2.demand_mshr_misses::.cpu.inst           425                       # number of demand (read+write) MSHR misses
system.l2.demand_mshr_misses::.cpu.data           183                       # number of demand (read+write) MSHR misses
system.l2.demand_mshr_misses::total               608                       # number of demand (read+write) MSHR misses
system.l2.overall_mshr_misses::.cpu.inst          425                       # number of overall MSHR misses
system.l2.overall_mshr_misses::.cpu.data          183                       # number of overall MSHR misses
system.l2.overall_mshr_misses::total              608                       # number of overall MSHR misses
system.l2.demand_mshr_miss_latency::.cpu.inst     27747500                       # number of demand (read+write) MSHR miss cycles
system.l2.demand_mshr_miss_latency::.cpu.data     13087000                       # number of demand (read+write) MSHR miss cycles
system.l2.demand_mshr_miss_latency::total     40834500                       # number of demand (read+write) MSHR miss cycles
system.l2.overall_mshr_miss_latency::.cpu.inst     27747500                       # number of overall MSHR miss cycles
system.l2.overall_mshr_miss_latency::.cpu.data     13087000                       # number of overall MSHR miss cycles
system.l2.overall_mshr_miss_latency::total     40834500                       # number of overall MSHR miss cycles
system.l2.demand_mshr_miss_rate::.cpu.inst     0.944444                       # mshr miss rate for demand accesses
system.l2.demand_mshr_miss_rate::.cpu.data     0.938462                       # mshr miss rate for demand accesses
system.l2.demand_mshr_miss_rate::total       0.942636                       # mshr miss rate for demand accesses
system.l2.overall_mshr_miss_rate::.cpu.inst     0.944444                       # mshr miss rate for overall accesses
system.l2.overall_mshr_miss_rate::.cpu.data     0.938462                       # mshr miss rate for overall accesses
system.l2.overall_mshr_miss_rate::total      0.942636                       # mshr miss rate for overall accesses
system.l2.demand_avg_mshr_miss_latency::.cpu.inst 65288.235294                       # average overall mshr miss latency
system.l2.demand_avg_mshr_miss_latency::.cpu.data 71513.661202                       # average overall mshr miss latency
system.l2.demand_avg_mshr_miss_latency::total 67162.006579                       # average overall mshr miss latency
system.l2.overall_avg_mshr_miss_latency::.cpu.inst 65288.235294                       # average overall mshr miss latency
system.l2.overall_avg_mshr_miss_latency::.cpu.data 71513.661202                       # average overall mshr miss latency
system.l2.overall_avg_mshr_miss_latency::total 67162.006579                       # average overall mshr miss latency
system.l2.replacements                              0                       # number of replacements
system.l2.WritebackDirty_hits::.writebacks            1                       # number of WritebackDirty hits
system.l2.WritebackDirty_hits::total                1                       # number of WritebackDirty hits
system.l2.WritebackDirty_accesses::.writebacks            1                       # number of WritebackDirty accesses(hits+misses)
system.l2.WritebackDirty_accesses::total            1                       # number of WritebackDirty accesses(hits+misses)
system.l2.WritebackClean_hits::.writebacks           96                       # number of WritebackClean hits
system.l2.WritebackClean_hits::total               96                       # number of WritebackClean hits
system.l2.WritebackClean_accesses::.writebacks           96                       # number of WritebackClean accesses(hits+misses)
system.l2.WritebackClean_accesses::total           96                       # number of WritebackClean accesses(hits+misses)
system.l2.ReadExReq_misses::.cpu.data              76                       # number of ReadExReq misses
system.l2.ReadExReq_misses::total                  76                       # number of ReadExReq misses
system.l2.ReadExReq_miss_latency::.cpu.data      6291000                       # number of ReadExReq miss cycles
system.l2.ReadExReq_miss_latency::total       6291000                       # number of ReadExReq miss cycles
system.l2.ReadExReq_accesses::.cpu.data            76                       # number of ReadExReq accesses(hits+misses)
system.l2.ReadExReq_accesses::total                76                       # number of ReadExReq accesses(hits+misses)
system.l2.ReadExReq_miss_rate::.cpu.data            1                       # miss rate for ReadExReq accesses
system.l2.ReadExReq_miss_rate::total                1                       # miss rate for ReadExReq accesses
system.l2.ReadExReq_avg_miss_latency::.cpu.data 82776.315789                       # average ReadExReq miss latency
system.l2.ReadExReq_avg_miss_latency::total 82776.315789                       # average ReadExReq miss latency
system.l2.ReadExReq_mshr_misses::.cpu.data           76                       # number of ReadExReq MSHR misses
system.l2.ReadExReq_mshr_misses::total             76                       # number of ReadExReq MSHR misses
system.l2.ReadExReq_mshr_miss_latency::.cpu.data      5531000                       # number of ReadExReq MSHR miss cycles
system.l2.ReadExReq_mshr_miss_latency::total      5531000                       # number of ReadExReq MSHR miss cycles
system.l2.ReadExReq_mshr_miss_rate::.cpu.data            1                       # mshr miss rate for ReadExReq accesses
system.l2.ReadExReq_mshr_miss_rate::total            1                       # mshr miss rate for ReadExReq accesses
system.l2.ReadExReq_avg_mshr_miss_latency::.cpu.data 72776.315789                       # average ReadExReq mshr miss latency
system.l2.ReadExReq_avg_mshr_miss_latency::total 72776.315789                       # average ReadExReq mshr miss latency
system.l2.ReadCleanReq_hits::.cpu.inst             24                       # number of ReadCleanReq hits
system.l2.ReadCleanReq_hits::total                 24                       # number of ReadCleanReq hits
system.l2.ReadCleanReq_misses::.cpu.inst          426                       # number of ReadCleanReq misses
system.l2.ReadCleanReq_misses::total              426                       # number of ReadCleanReq misses
system.l2.ReadCleanReq_miss_latency::.cpu.inst     32309000                       # number of ReadCleanReq miss cycles
system.l2.ReadCleanReq_miss_latency::total     32309000                       # number of ReadCleanReq miss cycles
system.l2.ReadCleanReq_accesses::.cpu.inst          450                       # number of ReadCleanReq accesses(hits+misses)
system.l2.ReadCleanReq_accesses::total            450                       # number of ReadCleanReq accesses(hits+misses)
system.l2.ReadCleanReq_miss_rate::.cpu.inst     0.946667                       # miss rate for ReadCleanReq accesses
system.l2.ReadCleanReq_miss_rate::total      0.946667                       # miss rate for ReadCleanReq accesses
system.l2.ReadCleanReq_avg_miss_latency::.cpu.inst 75842.723005                       # average ReadCleanReq miss latency
system.l2.ReadCleanReq_avg_miss_latency::total 75842.723005                       # average ReadCleanReq miss latency
system.l2.ReadCleanReq_mshr_hits::.cpu.inst            1                       # number of ReadCleanReq MSHR hits
system.l2.ReadCleanReq_mshr_hits::total             1                       # number of ReadCleanReq MSHR hits
system.l2.ReadCleanReq_mshr_misses::.cpu.inst          425                       # number of ReadCleanReq MSHR misses
system.l2.ReadCleanReq_mshr_misses::total          425                       # number of ReadCleanReq MSHR misses
system.l2.ReadCleanReq_mshr_miss_latency::.cpu.inst     27747500                       # number of ReadCleanReq MSHR miss cycles
system.l2.ReadCleanReq_mshr_miss_latency::total     27747500                       # number of ReadCleanReq MSHR miss cycles
system.l2.ReadCleanReq_mshr_miss_rate::.cpu.inst     0.944444                       # mshr miss rate for ReadCleanReq accesses
system.l2.ReadCleanReq_mshr_miss_rate::total     0.944444                       # mshr miss rate for ReadCleanReq accesses
system.l2.ReadCleanReq_avg_mshr_miss_latency::.cpu.inst 65288.235294                       # average ReadCleanReq mshr miss latency
system.l2.ReadCleanReq_avg_mshr_miss_latency::total 65288.235294                       # average ReadCleanReq mshr miss latency
system.l2.ReadSharedReq_hits::.cpu.data             7                       # number of ReadSharedReq hits
system.l2.ReadSharedReq_hits::total                 7                       # number of ReadSharedReq hits
system.l2.ReadSharedReq_misses::.cpu.data          112                       # number of ReadSharedReq misses
system.l2.ReadSharedReq_misses::total             112                       # number of ReadSharedReq misses
system.l2.ReadSharedReq_miss_latency::.cpu.data      8951000                       # number of ReadSharedReq miss cycles
system.l2.ReadSharedReq_miss_latency::total      8951000                       # number of ReadSharedReq miss cycles
system.l2.ReadSharedReq_accesses::.cpu.data          119                       # number of ReadSharedReq accesses(hits+misses)
system.l2.ReadSharedReq_accesses::total           119                       # number of ReadSharedReq accesses(hits+misses)
system.l2.ReadSharedReq_miss_rate::.cpu.data     0.941176                       # miss rate for ReadSharedReq accesses
system.l2.ReadSharedReq_miss_rate::total     0.941176                       # miss rate for ReadSharedReq accesses
system.l2.ReadSharedReq_avg_miss_latency::.cpu.data 79919.642857                       # average ReadSharedReq miss latency
system.l2.ReadSharedReq_avg_miss_latency::total 79919.642857                       # average ReadSharedReq miss latency
system.l2.ReadSharedReq_mshr_hits::.cpu.data            5                       # number of ReadSharedReq MSHR hits
system.l2.ReadSharedReq_mshr_hits::total            5                       # number of ReadSharedReq MSHR hits
system.l2.ReadSharedReq_mshr_misses::.cpu.data          107                       # number of ReadSharedReq MSHR misses
system.l2.ReadSharedReq_mshr_misses::total          107                       # number of ReadSharedReq MSHR misses
system.l2.ReadSharedReq_mshr_miss_latency::.cpu.data      7556000                       # number of ReadSharedReq MSHR miss cycles
system.l2.ReadSharedReq_mshr_miss_latency::total      7556000                       # number of ReadSharedReq MSHR miss cycles
system.l2.ReadSharedReq_mshr_miss_rate::.cpu.data     0.899160                       # mshr miss rate for ReadSharedReq accesses
system.l2.ReadSharedReq_mshr_miss_rate::total     0.899160                       # mshr miss rate for ReadSharedReq accesses
system.l2.ReadSharedReq_avg_mshr_miss_latency::.cpu.data 70616.822430                       # average ReadSharedReq mshr miss latency
system.l2.ReadSharedReq_avg_mshr_miss_latency::total 70616.822430                       # average ReadSharedReq mshr miss latency
system.l2.power_state.pwrStateResidencyTicks::UNDEFINED     47342500                       # Cumulative time (in ticks) in various power states
system.l2.tags.tagsinuse                   317.357307                       # Cycle average of tags in use
system.l2.tags.total_refs                         738                       # Total number of references to valid blocks.
system.l2.tags.sampled_refs                       608                       # Sample count of references to valid blocks.
system.l2.tags.avg_refs                      1.213816                       # Average number of references to valid blocks.
system.l2.tags.warmup_cycle                     77000                       # Cycle when the warmup percentage was hit.
system.l2.tags.occ_blocks::.cpu.inst       216.251332                       # Average occupied blocks per requestor
system.l2.tags.occ_blocks::.cpu.data       101.105974                       # Average occupied blocks per requestor
system.l2.tags.occ_percent::.cpu.inst        0.006599                       # Average percentage of cache occupancy
system.l2.tags.occ_percent::.cpu.data        0.003086                       # Average percentage of cache occupancy
system.l2.tags.occ_percent::total            0.009685                       # Average percentage of cache occupancy
system.l2.tags.occ_task_id_blocks::1024           608                       # Occupied blocks per task id
system.l2.tags.age_task_id_blocks_1024::0          118                       # Occupied blocks per task id
system.l2.tags.age_task_id_blocks_1024::1          490                       # Occupied blocks per task id
system.l2.tags.occ_task_id_percent::1024     0.018555                       # Percentage of cache occupancy per task id
system.l2.tags.tag_accesses                      1352                       # Number of tag accesses
system.l2.tags.data_accesses                     1352                       # Number of data accesses
system.l2.tags.power_state.pwrStateResidencyTicks::UNDEFINED     47342500                       # Cumulative time (in ticks) in various power states
system.mem_ctrls.avgPriority_.cpu.inst::samples       425.00                       # Average QoS priority value for accepted requests
system.mem_ctrls.avgPriority_.cpu.data::samples       183.00                       # Average QoS priority value for accepted requests
system.mem_ctrls.priorityMinLatency      0.000000018750                       # per QoS priority minimum request to response latency (s)
system.mem_ctrls.priorityMaxLatency      0.000000516000                       # per QoS priority maximum request to response latency (s)
system.mem_ctrls.numReadWriteTurnArounds            0                       # Number of turnarounds from READ to WRITE
system.mem_ctrls.numWriteReadTurnArounds            0                       # Number of turnarounds from WRITE to READ
system.mem_ctrls.numStayReadState                1222                       # Number of times bus staying in READ state
system.mem_ctrls.numStayWriteState                  0                       # Number of times bus staying in WRITE state
system.mem_ctrls.readReqs                         608                       # Number of read requests accepted
system.mem_ctrls.writeReqs                          0                       # Number of write requests accepted
system.mem_ctrls.readBursts                       608                       # Number of controller read bursts, including those serviced by the write queue
system.mem_ctrls.writeBursts                        0                       # Number of controller write bursts, including those merged in the write queue
system.mem_ctrls.servicedByWrQ                      0                       # Number of controller read bursts serviced by the write queue
system.mem_ctrls.mergedWrBursts                     0                       # Number of controller write bursts merged with an existing one
system.mem_ctrls.neitherReadNorWriteReqs            0                       # Number of requests that are neither read nor write
system.mem_ctrls.avgRdQLen                       1.17                       # Average read queue length when enqueuing
system.mem_ctrls.avgWrQLen                       0.00                       # Average write queue length when enqueuing
system.mem_ctrls.numRdRetry                         0                       # Number of times read queue was full causing retry
system.mem_ctrls.numWrRetry                         0                       # Number of times write queue was full causing retry
system.mem_ctrls.readPktSize::0                     0                       # Read request sizes (log2)
system.mem_ctrls.readPktSize::1                     0                       # Read request sizes (log2)
system.mem_ctrls.readPktSize::2                     0                       # Read request sizes (log2)
system.mem_ctrls.readPktSize::3                     0                       # Read request sizes (log2)
system.mem_ctrls.readPktSize::4                     0                       # Read request sizes (log2)
system.mem_ctrls.readPktSize::5                     0                       # Read request sizes (log2)
system.mem_ctrls.readPktSize::6                   608                       # Read request sizes (log2)
system.mem_ctrls.writePktSize::0                    0                       # Write request sizes (log2)
system.mem_ctrls.writePktSize::1                    0                       # Write request sizes (log2)
system.mem_ctrls.writePktSize::2                    0                       # Write request sizes (log2)
system.mem_ctrls.writePktSize::3                    0                       # Write request sizes (log2)
system.mem_ctrls.writePktSize::4                    0                       # Write request sizes (log2)
system.mem_ctrls.writePktSize::5                    0                       # Write request sizes (log2)
system.mem_ctrls.writePktSize::6                    0                       # Write request sizes (log2)
system.mem_ctrls.rdQLenPdf::0                     511                       # What read queue length does an incoming req see
system.mem_ctrls.rdQLenPdf::1                      88                       # What read queue length does an incoming req see
[...]
system.mem_ctrls.dram.bw_read::.cpu.data    247388710                       # Total read bandwidth from this memory (bytes/s)
system.mem_ctrls.dram.bw_read::total        821925331                       # Total read bandwidth from this memory (bytes/s)
system.mem_ctrls.dram.bw_inst_read::.cpu.inst    574536621                       # Instruction read bandwidth from this memory (bytes/s)
system.mem_ctrls.dram.bw_inst_read::total    574536621                       # Instruction read bandwidth from this memory (bytes/s)
system.mem_ctrls.dram.bw_total::.cpu.inst    574536621                       # Total bandwidth to/from this memory (bytes/s)
system.mem_ctrls.dram.bw_total::.cpu.data    247388710                       # Total bandwidth to/from this memory (bytes/s)
system.mem_ctrls.dram.bw_total::total       821925331                       # Total bandwidth to/from this memory (bytes/s)
system.mem_ctrls.dram.readBursts                  608                       # Number of DRAM read bursts
system.mem_ctrls.dram.writeBursts                   0                       # Number of DRAM write bursts
system.mem_ctrls.dram.perBankRdBursts::0           32                       # Per bank write bursts
system.mem_ctrls.dram.perBankRdBursts::1           66                       # Per bank write bursts
system.mem_ctrls.dram.perBankRdBursts::2            5                       # Per bank write bursts
system.mem_ctrls.dram.perBankRdBursts::3           17                       # Per bank write bursts
system.mem_ctrls.dram.perBankRdBursts::4           35                       # Per bank write bursts
system.mem_ctrls.dram.perBankRdBursts::5           49                       # Per bank write bursts
system.mem_ctrls.dram.perBankRdBursts::6           17                       # Per bank write bursts
system.mem_ctrls.dram.perBankRdBursts::7           17                       # Per bank write bursts
system.mem_ctrls.dram.perBankRdBursts::8           34                       # Per bank write bursts
system.mem_ctrls.dram.perBankRdBursts::9           89                       # Per bank write bursts
system.mem_ctrls.dram.perBankRdBursts::10           58                       # Per bank write bursts
system.mem_ctrls.dram.perBankRdBursts::11           78                       # Per bank write bursts
system.mem_ctrls.dram.perBankRdBursts::12           42                       # Per bank write bursts
system.mem_ctrls.dram.perBankRdBursts::13           26                       # Per bank write bursts
system.mem_ctrls.dram.perBankRdBursts::14            5                       # Per bank write bursts
system.mem_ctrls.dram.perBankRdBursts::15           38                       # Per bank write bursts
system.mem_ctrls.dram.perBankWrBursts::0            0                       # Per bank write bursts
system.mem_ctrls.dram.perBankWrBursts::1            0                       # Per bank write bursts
system.mem_ctrls.dram.perBankWrBursts::2            0                       # Per bank write bursts
system.mem_ctrls.dram.perBankWrBursts::3            0                       # Per bank write bursts
system.mem_ctrls.dram.perBankWrBursts::4            0                       # Per bank write bursts
system.mem_ctrls.dram.perBankWrBursts::5            0                       # Per bank write bursts
system.mem_ctrls.dram.perBankWrBursts::6            0                       # Per bank write bursts
system.mem_ctrls.dram.perBankWrBursts::7            0                       # Per bank write bursts
system.mem_ctrls.dram.perBankWrBursts::8            0                       # Per bank write bursts
system.mem_ctrls.dram.perBankWrBursts::9            0                       # Per bank write bursts
system.mem_ctrls.dram.perBankWrBursts::10            0                       # Per bank write bursts
system.mem_ctrls.dram.perBankWrBursts::11            0                       # Per bank write bursts
system.mem_ctrls.dram.perBankWrBursts::12            0                       # Per bank write bursts
system.mem_ctrls.dram.perBankWrBursts::13            0                       # Per bank write bursts
system.mem_ctrls.dram.perBankWrBursts::14            0                       # Per bank write bursts
system.mem_ctrls.dram.perBankWrBursts::15            0                       # Per bank write bursts
system.mem_ctrls.dram.totQLat                 4505250                       # Total ticks spent queuing
system.mem_ctrls.dram.totBusLat               3040000                       # Total ticks spent in databus transfers
system.mem_ctrls.dram.totMemAccLat           15905250                       # Total ticks spent from burst creation until serviced by the DRAM
system.mem_ctrls.dram.avgQLat                 7409.95                       # Average queueing delay per DRAM burst
system.mem_ctrls.dram.avgBusLat               5000.00                       # Average bus latency per DRAM burst
system.mem_ctrls.dram.avgMemAccLat           26159.95                       # Average memory access latency per DRAM burst
system.mem_ctrls.dram.readRowHits                 473                       # Number of row buffer hits during reads
system.mem_ctrls.dram.writeRowHits                  0                       # Number of row buffer hits during writes
system.mem_ctrls.dram.readRowHitRate            77.80                       # Row buffer hit rate for reads
system.mem_ctrls.dram.writeRowHitRate             nan                       # Row buffer hit rate for writes
system.mem_ctrls.dram.bytesPerActivate::samples          133                       # Bytes accessed per row activation
system.mem_ctrls.dram.bytesPerActivate::mean   290.646617                       # Bytes accessed per row activation
system.mem_ctrls.dram.bytesPerActivate::gmean   199.172287                       # Bytes accessed per row activation
system.mem_ctrls.dram.bytesPerActivate::stdev   270.671841                       # Bytes accessed per row activation
system.mem_ctrls.dram.bytesPerActivate::0-127           33     24.81%     24.81% # Bytes accessed per row activation
system.mem_ctrls.dram.bytesPerActivate::128-255           40     30.08%     54.89% # Bytes accessed per row activation
system.mem_ctrls.dram.bytesPerActivate::256-383           27     20.30%     75.19% # Bytes accessed per row activation
system.mem_ctrls.dram.bytesPerActivate::384-511           11      8.27%     83.46% # Bytes accessed per row activation
system.mem_ctrls.dram.bytesPerActivate::512-639            5      3.76%     87.22% # Bytes accessed per row activation
system.mem_ctrls.dram.bytesPerActivate::640-767            3      2.26%     89.47% # Bytes accessed per row activation
system.mem_ctrls.dram.bytesPerActivate::768-895            4      3.01%     92.48% # Bytes accessed per row activation
system.mem_ctrls.dram.bytesPerActivate::896-1023            2      1.50%     93.98% # Bytes accessed per row activation
system.mem_ctrls.dram.bytesPerActivate::1024-1151            8      6.02%    100.00% # Bytes accessed per row activation
system.mem_ctrls.dram.bytesPerActivate::total          133                       # Bytes accessed per row activation
system.mem_ctrls.dram.bytesRead                 38912                       # Total number of bytes read from DRAM
system.mem_ctrls.dram.bytesWritten                  0                       # Total number of bytes written to DRAM
system.mem_ctrls.dram.avgRdBW              821.925331                       # Average DRAM read bandwidth in MiBytes/s
system.mem_ctrls.dram.avgWrBW                       0                       # Average DRAM write bandwidth in MiBytes/s
system.mem_ctrls.dram.peakBW                 12800.00                       # Theoretical peak bandwidth in MiByte/s
system.mem_ctrls.dram.busUtil                    6.42                       # Data bus utilization in percentage
system.mem_ctrls.dram.busUtilRead                6.42                       # Data bus utilization in percentage for reads
system.mem_ctrls.dram.busUtilWrite               0.00                       # Data bus utilization in percentage for writes
system.mem_ctrls.dram.pageHitRate               77.80                       # Row buffer hit rate, read and write combined
system.mem_ctrls.dram.power_state.pwrStateResidencyTicks::UNDEFINED     47342500                       # Cumulative time (in ticks) in various power states
system.mem_ctrls.dram.rank0.actEnergy          456960                       # Energy for activate commands per rank (pJ)
system.mem_ctrls.dram.rank0.preEnergy          242880                       # Energy for precharge commands per rank (pJ)
system.mem_ctrls.dram.rank0.readEnergy        1699320                       # Energy for read commands per rank (pJ)
system.mem_ctrls.dram.rank0.writeEnergy             0                       # Energy for write commands per rank (pJ)
system.mem_ctrls.dram.rank0.refreshEnergy 3687840.000000                       # Energy for refresh commands per rank (pJ)
system.mem_ctrls.dram.rank0.actBackEnergy     20698410                       # Energy for active background per rank (pJ)
system.mem_ctrls.dram.rank0.preBackEnergy       749280                       # Energy for precharge background per rank (pJ)
system.mem_ctrls.dram.rank0.actPowerDownEnergy            0                       # Energy for active power-down per rank (pJ)
system.mem_ctrls.dram.rank0.prePowerDownEnergy            0                       # Energy for precharge power-down per rank (pJ)
system.mem_ctrls.dram.rank0.selfRefreshEnergy            0                       # Energy for self refresh per rank (pJ)
system.mem_ctrls.dram.rank0.totalEnergy      27534690                       # Total energy per rank (pJ)
system.mem_ctrls.dram.rank0.averagePower   581.606168                       # Core power per rank (mW)
system.mem_ctrls.dram.rank0.totalIdleTime            0                       # Total Idle time Per DRAM Rank
system.mem_ctrls.dram.rank0.pwrStateTime::IDLE      1674750                       # Time in different power states
system.mem_ctrls.dram.rank0.pwrStateTime::REF      1560000                       # Time in different power states
system.mem_ctrls.dram.rank0.pwrStateTime::SREF            0                       # Time in different power states
system.mem_ctrls.dram.rank0.pwrStateTime::PRE_PDN            0                       # Time in different power states
system.mem_ctrls.dram.rank0.pwrStateTime::ACT     44107750                       # Time in different power states
system.mem_ctrls.dram.rank0.pwrStateTime::ACT_PDN            0                       # Time in different power states
system.mem_ctrls.dram.rank1.actEnergy          506940                       # Energy for activate commands per rank (pJ)
system.mem_ctrls.dram.rank1.preEnergy          261855                       # Energy for precharge commands per rank (pJ)
system.mem_ctrls.dram.rank1.readEnergy        2641800                       # Energy for read commands per rank (pJ)
system.mem_ctrls.dram.rank1.writeEnergy             0                       # Energy for write commands per rank (pJ)
system.mem_ctrls.dram.rank1.refreshEnergy 3687840.000000                       # Energy for refresh commands per rank (pJ)
system.mem_ctrls.dram.rank1.actBackEnergy     21327690                       # Energy for active background per rank (pJ)
system.mem_ctrls.dram.rank1.preBackEnergy       219360                       # Energy for precharge background per rank (pJ)
system.mem_ctrls.dram.rank1.actPowerDownEnergy            0                       # Energy for active power-down per rank (pJ)
system.mem_ctrls.dram.rank1.prePowerDownEnergy            0                       # Energy for precharge power-down per rank (pJ)
system.mem_ctrls.dram.rank1.selfRefreshEnergy            0                       # Energy for self refresh per rank (pJ)
system.mem_ctrls.dram.rank1.totalEnergy      28645485                       # Total energy per rank (pJ)
system.mem_ctrls.dram.rank1.averagePower   605.069124                       # Core power per rank (mW)
system.mem_ctrls.dram.rank1.totalIdleTime            0                       # Total Idle time Per DRAM Rank
system.mem_ctrls.dram.rank1.pwrStateTime::IDLE       406000                       # Time in different power states
system.mem_ctrls.dram.rank1.pwrStateTime::REF      1560000                       # Time in different power states
system.mem_ctrls.dram.rank1.pwrStateTime::SREF            0                       # Time in different power states
system.mem_ctrls.dram.rank1.pwrStateTime::PRE_PDN            0                       # Time in different power states
system.mem_ctrls.dram.rank1.pwrStateTime::ACT     45376500                       # Time in different power states
system.mem_ctrls.dram.rank1.pwrStateTime::ACT_PDN            0                       # Time in different power states
system.mem_ctrls.power_state.pwrStateResidencyTicks::UNDEFINED     47342500                       # Cumulative time (in ticks) in various power states
system.membus.trans_dist::ReadResp                532                       # Transaction distribution
system.membus.trans_dist::ReadExReq                76                       # Transaction distribution
system.membus.trans_dist::ReadExResp               76                       # Transaction distribution
system.membus.trans_dist::ReadSharedReq           532                       # Transaction distribution
system.membus.pkt_count_system.l2.mem_side_port::system.mem_ctrls.port         1216                       # Packet count per connected requestor and responder (bytes)
system.membus.pkt_count::total                   1216                       # Packet count per connected requestor and responder (bytes)
system.membus.pkt_size_system.l2.mem_side_port::system.mem_ctrls.port        38912                       # Cumulative packet size per connected requestor and responder (bytes)
system.membus.pkt_size::total                   38912                       # Cumulative packet size per connected requestor and responder (bytes)
system.membus.snoops                                0                       # Total snoops (count)
system.membus.snoopTraffic                          0                       # Total snoop traffic (bytes)
system.membus.snoop_fanout::samples               608                       # Request fanout histogram
system.membus.snoop_fanout::mean                    0                       # Request fanout histogram
system.membus.snoop_fanout::stdev                   0                       # Request fanout histogram
system.membus.snoop_fanout::underflows              0      0.00%      0.00% # Request fanout histogram
system.membus.snoop_fanout::0                     608    100.00%    100.00% # Request fanout histogram
system.membus.snoop_fanout::1                       0      0.00%    100.00% # Request fanout histogram
system.membus.snoop_fanout::overflows               0      0.00%    100.00% # Request fanout histogram
system.membus.snoop_fanout::min_value               0                       # Request fanout histogram
system.membus.snoop_fanout::max_value               0                       # Request fanout histogram
system.membus.snoop_fanout::total                 608                       # Request fanout histogram
system.membus.power_state.pwrStateResidencyTicks::UNDEFINED     47342500                       # Cumulative time (in ticks) in various power states
system.membus.reqLayer0.occupancy              692000                       # Layer occupancy (ticks)
system.membus.reqLayer0.utilization               1.5                       # Layer utilization (%)
system.membus.respLayer1.occupancy            3239000                       # Layer occupancy (ticks)
system.membus.respLayer1.utilization              6.8                       # Layer utilization (%)
system.tol2bus.trans_dist::ReadResp               569                       # Transaction distribution
system.tol2bus.trans_dist::WritebackDirty            1                       # Transaction distribution
system.tol2bus.trans_dist::WritebackClean          102                       # Transaction distribution
system.tol2bus.trans_dist::CleanEvict               2                       # Transaction distribution
system.tol2bus.trans_dist::ReadExReq               76                       # Transaction distribution
system.tol2bus.trans_dist::ReadExResp              76                       # Transaction distribution
system.tol2bus.trans_dist::ReadCleanReq           450                       # Transaction distribution
system.tol2bus.trans_dist::ReadSharedReq          119                       # Transaction distribution
system.tol2bus.pkt_count_system.cpu.icache.mem_side_port::system.l2.cpu_side_port         1002                       # Packet count per connected requestor and responder (bytes)
system.tol2bus.pkt_count_system.cpu.dcache.mem_side_port::system.l2.cpu_side_port          393                       # Packet count per connected requestor and responder (bytes)
system.tol2bus.pkt_count::total                  1395                       # Packet count per connected requestor and responder (bytes)
system.tol2bus.pkt_size_system.cpu.icache.mem_side_port::system.l2.cpu_side_port        35328                       # Cumulative packet size per connected requestor and responder (bytes)
system.tol2bus.pkt_size_system.cpu.dcache.mem_side_port::system.l2.cpu_side_port        12544                       # Cumulative packet size per connected requestor and responder (bytes)
system.tol2bus.pkt_size::total                  47872                       # Cumulative packet size per connected requestor and responder (bytes)
system.tol2bus.snoops                               0                       # Total snoops (count)
system.tol2bus.snoopTraffic                         0                       # Total snoop traffic (bytes)
system.tol2bus.snoop_fanout::samples              645                       # Request fanout histogram
system.tol2bus.snoop_fanout::mean            0.031008                       # Request fanout histogram
system.tol2bus.snoop_fanout::stdev           0.173473                       # Request fanout histogram
system.tol2bus.snoop_fanout::underflows             0      0.00%      0.00% # Request fanout histogram
system.tol2bus.snoop_fanout::0                    625     96.90%     96.90% # Request fanout histogram
system.tol2bus.snoop_fanout::1                     20      3.10%    100.00% # Request fanout histogram
system.tol2bus.snoop_fanout::2                      0      0.00%    100.00% # Request fanout histogram
system.tol2bus.snoop_fanout::overflows              0      0.00%    100.00% # Request fanout histogram
system.tol2bus.snoop_fanout::min_value              0                       # Request fanout histogram
system.tol2bus.snoop_fanout::max_value              1                       # Request fanout histogram
system.tol2bus.snoop_fanout::total                645                       # Request fanout histogram
system.tol2bus.power_state.pwrStateResidencyTicks::UNDEFINED     47342500                       # Cumulative time (in ticks) in various power states
system.tol2bus.reqLayer0.occupancy             478000                       # Layer occupancy (ticks)
system.tol2bus.reqLayer0.utilization              1.0                       # Layer utilization (%)
system.tol2bus.respLayer0.occupancy            675499                       # Layer occupancy (ticks)
system.tol2bus.respLayer0.utilization             1.4                       # Layer utilization (%)
system.tol2bus.respLayer1.occupancy            294995                       # Layer occupancy (ticks)
system.tol2bus.respLayer1.utilization             0.6                       # Layer utilization (%)
system.voltage_domain.voltage                       1                       # Voltage in Volts

---------- End Simulation Statistics   ----------
