
---------- Begin Simulation Statistics ----------
final_tick                                   32293000                       # Number of ticks from beginning of simulation (restored from checkpoints and never reset)
host_inst_rate                                  59029                       # Simulator instruction rate (inst/s)
host_mem_usage                                 710648                       # Number of bytes of host memory used
host_op_rate                                    67511                       # Simulator op (including micro ops) rate (op/s)
host_seconds                                     0.17                       # Real time elapsed on the host
host_tick_rate                              186615927                       # Simulator tick rate (ticks/s)
sim_freq                                 1000000000000                       # Frequency of simulated ticks
sim_insts                                       10204                       # Number of instructions simulated
sim_ops                                         11680                       # Number of ops (including micro ops) simulated
sim_seconds                                  0.000032                       # Number of seconds simulated
sim_ticks                                    32293000                       # Number of ticks simulated
system.cpu.committedInsts                       10204                       # Number of instructions committed
system.cpu.committedOps                         11680                       # Number of ops (including micro ops) committed
system.cpu.cpi                               6.329479                       # CPI: cycles per instruction
system.cpu.discardedOps                          2034                       # Number of ops (including micro ops) which were discarded before commit
system.cpu.idleCycles                           46744                       # Total number of cycles that the object has spent stopped
system.cpu.ipc                               0.157991                       # IPC: instructions per cycle
system.cpu.numCycles                            64586                       # number of cpu cycles simulated
system.cpu.numFetchSuspends                         0                       # Number of times Execute suspended instruction fetching
system.cpu.numWorkItemsCompleted                    0                       # number of work items this cpu completed
system.cpu.numWorkItemsStarted                      0                       # number of work items this cpu started
system.cpu.op_class_0::No_OpClass                   0      0.00%      0.00% # Class of committed instruction
system.cpu.op_class_0::IntAlu                    8104     69.38%     69.38% # Class of committed instruction
system.cpu.op_class_0::IntMult                     62      0.53%     69.91% # Class of committed instruction
system.cpu.op_class_0::IntDiv                       0      0.00%     69.91% # Class of committed instruction
system.cpu.op_class_0::FloatAdd                     0      0.00%     69.91% # Class of committed instruction
system.cpu.op_class_0::FloatCmp                     0      0.00%     69.91% # Class of committed instruction
system.cpu.op_class_0::FloatCvt                     0      0.00%     69.91% # Class of committed instruction
system.cpu.op_class_0::FloatMult                    0      0.00%     69.91% # Class of committed instruction
system.cpu.op_class_0::FloatMultAcc                 0      0.00%     69.91% # Class of committed instruction
system.cpu.op_class_0::FloatDiv                     0      0.00%     69.91% # Class of committed instruction
system.cpu.op_class_0::FloatMisc                    0      0.00%     69.91% # Class of committed instruction
system.cpu.op_class_0::FloatSqrt                    0      0.00%     69.91% # Class of committed instruction
system.cpu.op_class_0::SimdAdd                      0      0.00%     69.91% # Class of committed instruction
system.cpu.op_class_0::SimdAddAcc                   0      0.00%     69.91% # Class of committed instruction
system.cpu.op_class_0::SimdAlu                      0      0.00%     69.91% # Class of committed instruction
system.cpu.op_class_0::SimdCmp                      0      0.00%     69.91% # Class of committed instruction
system.cpu.op_class_0::SimdCvt                      0      0.00%     69.91% # Class of committed instruction
system.cpu.op_class_0::SimdMisc                     0      0.00%     69.91% # Class of committed instruction
system.cpu.op_class_0::SimdMult                     0      0.00%     69.91% # Class of committed instruction
system.cpu.op_class_0::SimdMultAcc                  0      0.00%     69.91% # Class of committed instruction
system.cpu.op_class_0::SimdShift                    0      0.00%     69.91% # Class of committed instruction
system.cpu.op_class_0::SimdShiftAcc                 0      0.00%     69.91% # Class of committed instruction
system.cpu.op_class_0::SimdDiv                      0      0.00%     69.91% # Class of committed instruction
system.cpu.op_class_0::SimdSqrt                     0      0.00%     69.91% # Class of committed instruction
system.cpu.op_class_0::SimdFloatAdd                 0      0.00%     69.91% # Class of committed instruction
system.cpu.op_class_0::SimdFloatAlu                 0      0.00%     69.91% # Class of committed instruction
system.cpu.op_class_0::SimdFloatCmp                 0      0.00%     69.91% # Class of committed instruction
system.cpu.op_class_0::SimdFloatCvt                 0      0.00%     69.91% # Class of committed instruction
system.cpu.op_class_0::SimdFloatDiv                 0      0.00%     69.91% # Class of committed instruction
system.cpu.op_class_0::SimdFloatMisc                0      0.00%     69.91% # Class of committed instruction
system.cpu.op_class_0::SimdFloatMult                0      0.00%     69.91% # Class of committed instruction
system.cpu.op_class_0::SimdFloatMultAcc             0      0.00%     69.91% # Class of committed instruction
system.cpu.op_class_0::SimdFloatSqrt                0      0.00%     69.91% # Class of committed instruction
system.cpu.op_class_0::SimdReduceAdd                0      0.00%     69.91% # Class of committed instruction
system.cpu.op_class_0::SimdReduceAlu                0      0.00%     69.91% # Class of committed instruction
system.cpu.op_class_0::SimdReduceCmp                0      0.00%     69.91% # Class of committed instruction
system.cpu.op_class_0::SimdFloatReduceAdd            0      0.00%     69.91% # Class of committed instruction
system.cpu.op_class_0::SimdFloatReduceCmp            0      0.00%     69.91% # Class of committed instruction
system.cpu.op_class_0::SimdAes                      0      0.00%     69.91% # Class of committed instruction
system.cpu.op_class_0::SimdAesMix                   0      0.00%     69.91% # Class of committed instruction
system.cpu.op_class_0::SimdSha1Hash                 0      0.00%     69.91% # Class of committed instruction
system.cpu.op_class_0::SimdSha1Hash2                0      0.00%     69.91% # Class of committed instruction
system.cpu.op_class_0::SimdSha256Hash               0      0.00%     69.91% # Class of committed instruction
system.cpu.op_class_0::SimdSha256Hash2              0      0.00%     69.91% # Class of committed instruction
system.cpu.op_class_0::SimdShaSigma2                0      0.00%     69.91% # Class of committed instruction
system.cpu.op_class_0::SimdShaSigma3                0      0.00%     69.91% # Class of committed instruction
system.cpu.op_class_0::SimdPredAlu                  0      0.00%     69.91% # Class of committed instruction
system.cpu.op_class_0::MemRead                   1805     15.45%     85.37% # Class of committed instruction
system.cpu.op_class_0::MemWrite                  1709     14.63%    100.00% # Class of committed instruction
system.cpu.op_class_0::FloatMemRead                 0      0.00%    100.00% # Class of committed instruction
system.cpu.op_class_0::FloatMemWrite                0      0.00%    100.00% # Class of committed instruction
system.cpu.op_class_0::IprAccess                    0      0.00%    100.00% # Class of committed instruction
system.cpu.op_class_0::InstPrefetch                 0      0.00%    100.00% # Class of committed instruction
system.cpu.op_class_0::total                    11680                       # Class of committed instruction
system.cpu.tickCycles                           17842                       # Number of cycles that the object actually ticked
system.cpu.workload.numSyscalls                    13                       # Number of system calls
system.membus.snoop_filter.hit_multi_requests            0                       # Number of requests hitting in the snoop filter with multiple (>1) holders of the requested data.
system.membus.snoop_filter.hit_multi_snoops            0                       # Number of snoops hitting in the snoop filter with multiple (>1) holders of the requested data.
system.membus.snoop_filter.hit_single_requests            0                       # Number of requests hitting in the snoop filter with a single holder of the requested data.
system.membus.snoop_filter.hit_single_snoops            0                       # Number of snoops hitting in the snoop filter with a single holder of the requested data.
system.membus.snoop_filter.tot_requests           208                       # Total number of requests made to the snoop filter.
system.membus.snoop_filter.tot_snoops               0                       # Total number of snoops made to the snoop filter.
system.tol2bus.snoop_filter.hit_multi_requests           24                       # Number of requests hitting in the snoop filter with multiple (>1) holders of the requested data.
system.tol2bus.snoop_filter.hit_multi_snoops            0                       # Number of snoops hitting in the snoop filter with multiple (>1) holders of the requested data.
system.tol2bus.snoop_filter.hit_single_requests          161                       # Number of requests hitting in the snoop filter with a single holder of the requested data.
system.tol2bus.snoop_filter.hit_single_snoops            0                       # Number of snoops hitting in the snoop filter with a single holder of the requested data.
system.tol2bus.snoop_filter.tot_requests          440                       # Total number of requests made to the snoop filter.
system.tol2bus.snoop_filter.tot_snoops              0                       # Total number of snoops made to the snoop filter.
system.clk_domain.clock                          1000                       # Clock period in ticks
system.cpu.branchPred.lookups                    3363                       # Number of BP lookups
system.cpu.branchPred.condPredicted              2179                       # Number of conditional branches predicted
system.cpu.branchPred.condIncorrect               599                       # Number of conditional branches incorrect
system.cpu.branchPred.BTBLookups                 1745                       # Number of BTB lookups
system.cpu.branchPred.BTBHits                     690                       # Number of BTB hits
system.cpu.branchPred.BTBHitPct             39.541547                       # BTB Hit Percentage
system.cpu.branchPred.RASUsed                     276                       # Number of times the RAS was used to get a target.
system.cpu.branchPred.RASIncorrect                  2                       # Number of incorrect RAS predictions.
system.cpu.branchPred.indirectLookups             156                       # Number of indirect predictor lookups.
system.cpu.branchPred.indirectHits                 14                       # Number of indirect target hits.
system.cpu.branchPred.indirectMisses              142                       # Number of indirect misses.
system.cpu.branchPred.indirectMispredicted           70                       # Number of mispredicted indirect branches.
system.cpu.dcache.demand_hits::.cpu.data         3509                       # number of demand (read+write) hits
system.cpu.dcache.demand_hits::total             3509                       # number of demand (read+write) hits
system.cpu.dcache.overall_hits::.cpu.data         3555                       # number of overall hits
system.cpu.dcache.overall_hits::total            3555                       # number of overall hits
system.cpu.dcache.demand_misses::.cpu.data           82                       # number of demand (read+write) misses
system.cpu.dcache.demand_misses::total             82                       # number of demand (read+write) misses
system.cpu.dcache.overall_misses::.cpu.data           85                       # number of overall misses
system.cpu.dcache.overall_misses::total            85                       # number of overall misses
system.cpu.dcache.demand_miss_latency::.cpu.data      9325000                       # number of demand (read+write) miss cycles
system.cpu.dcache.demand_miss_latency::total      9325000                       # number of demand (read+write) miss cycles
system.cpu.dcache.overall_miss_latency::.cpu.data      9325000                       # number of overall miss cycles
system.cpu.dcache.overall_miss_latency::total      9325000                       # number of overall miss cycles
system.cpu.dcache.demand_accesses::.cpu.data         3591                       # number of demand (read+write) accesses
system.cpu.dcache.demand_accesses::total         3591                       # number of demand (read+write) accesses
system.cpu.dcache.overall_accesses::.cpu.data         3640                       # number of overall (read+write) accesses
system.cpu.dcache.overall_accesses::total         3640                       # number of overall (read+write) accesses
system.cpu.dcache.demand_miss_rate::.cpu.data     0.022835                       # miss rate for demand accesses
system.cpu.dcache.demand_miss_rate::total     0.022835                       # miss rate for demand accesses
system.cpu.dcache.overall_miss_rate::.cpu.data     0.023352                       # miss rate for overall accesses
system.cpu.dcache.overall_miss_rate::total     0.023352                       # miss rate for overall accesses
system.cpu.dcache.demand_avg_miss_latency::.cpu.data 113719.512195                       # average overall miss latency
system.cpu.dcache.demand_avg_miss_latency::total 113719.512195                       # average overall miss latency
system.cpu.dcache.overall_avg_miss_latency::.cpu.data 109705.882353                       # average overall miss latency
system.cpu.dcache.overall_avg_miss_latency::total 109705.882353                       # average overall miss latency
system.cpu.dcache.blocked_cycles::no_mshrs            0                       # number of cycles access was blocked
system.cpu.dcache.blocked_cycles::no_targets            0                       # number of cycles access was blocked
system.cpu.dcache.blocked::no_mshrs                 0                       # number of cycles access was blocked
system.cpu.dcache.blocked::no_targets               0                       # number of cycles access was blocked
system.cpu.dcache.avg_blocked_cycles::no_mshrs          nan                       # average number of cycles each access was blocked
system.cpu.dcache.avg_blocked_cycles::no_targets          nan                       # average number of cycles each access was blocked
system.cpu.dcache.writebacks::.writebacks            2                       # number of writebacks
system.cpu.dcache.writebacks::total                 2                       # number of writebacks
system.cpu.dcache.demand_mshr_hits::.cpu.data           14                       # number of demand (read+write) MSHR hits
system.cpu.dcache.demand_mshr_hits::total           14                       # number of demand (read+write) MSHR hits
system.cpu.dcache.overall_mshr_hits::.cpu.data           14                       # number of overall MSHR hits
system.cpu.dcache.overall_mshr_hits::total           14                       # number of overall MSHR hits
system.cpu.dcache.demand_mshr_misses::.cpu.data           68                       # number of demand (read+write) MSHR misses
system.cpu.dcache.demand_mshr_misses::total           68                       # number of demand (read+write) MSHR misses
system.cpu.dcache.overall_mshr_misses::.cpu.data           70                       # number of overall MSHR misses
system.cpu.dcache.overall_mshr_misses::total           70                       # number of overall MSHR misses
system.cpu.dcache.demand_mshr_miss_latency::.cpu.data      7383000                       # number of demand (read+write) MSHR miss cycles
system.cpu.dcache.demand_mshr_miss_latency::total      7383000                       # number of demand (read+write) MSHR miss cycles
system.cpu.dcache.overall_mshr_miss_latency::.cpu.data      7710500                       # number of overall MSHR miss cycles
system.cpu.dcache.overall_mshr_miss_latency::total      7710500                       # number of overall MSHR miss cycles
system.cpu.dcache.demand_mshr_miss_rate::.cpu.data     0.018936                       # mshr miss rate for demand accesses
system.cpu.dcache.demand_mshr_miss_rate::total     0.018936                       # mshr miss rate for demand accesses
system.cpu.dcache.overall_mshr_miss_rate::.cpu.data     0.019231                       # mshr miss rate for overall accesses
system.cpu.dcache.overall_mshr_miss_rate::total     0.019231                       # mshr miss rate for overall accesses
system.cpu.dcache.demand_avg_mshr_miss_latency::.cpu.data 108573.529412                       # average overall mshr miss latency
system.cpu.dcache.demand_avg_mshr_miss_latency::total 108573.529412                       # average overall mshr miss latency
system.cpu.dcache.overall_avg_mshr_miss_latency::.cpu.data       110150                       # average overall mshr miss latency
system.cpu.dcache.overall_avg_mshr_miss_latency::total       110150                       # average overall mshr miss latency
system.cpu.dcache.replacements                      7                       # number of replacements
system.cpu.dcache.ReadReq_hits::.cpu.data         1905                       # number of ReadReq hits
system.cpu.dcache.ReadReq_hits::total            1905                       # number of ReadReq hits
system.cpu.dcache.ReadReq_misses::.cpu.data           51                       # number of ReadReq misses
system.cpu.dcache.ReadReq_misses::total            51                       # number of ReadReq misses
system.cpu.dcache.ReadReq_miss_latency::.cpu.data      5550000                       # number of ReadReq miss cycles
system.cpu.dcache.ReadReq_miss_latency::total      5550000                       # number of ReadReq miss cycles
system.cpu.dcache.ReadReq_accesses::.cpu.data         1956                       # number of ReadReq accesses(hits+misses)
system.cpu.dcache.ReadReq_accesses::total         1956                       # number of ReadReq accesses(hits+misses)
system.cpu.dcache.ReadReq_miss_rate::.cpu.data     0.026074                       # miss rate for ReadReq accesses
system.cpu.dcache.ReadReq_miss_rate::total     0.026074                       # miss rate for ReadReq accesses
system.cpu.dcache.ReadReq_avg_miss_latency::.cpu.data 108823.529412                       # average ReadReq miss latency
system.cpu.dcache.ReadReq_avg_miss_latency::total 108823.529412                       # average ReadReq miss latency
system.cpu.dcache.ReadReq_mshr_hits::.cpu.data            3                       # number of ReadReq MSHR hits
system.cpu.dcache.ReadReq_mshr_hits::total            3                       # number of ReadReq MSHR hits
system.cpu.dcache.ReadReq_mshr_misses::.cpu.data           48                       # number of ReadReq MSHR misses
system.cpu.dcache.ReadReq_mshr_misses::total           48                       # number of ReadReq MSHR misses
system.cpu.dcache.ReadReq_mshr_miss_latency::.cpu.data      4919500                       # number of ReadReq MSHR miss cycles
system.cpu.dcache.ReadReq_mshr_miss_latency::total      4919500                       # number of ReadReq MSHR miss cycles
system.cpu.dcache.ReadReq_mshr_miss_rate::.cpu.data     0.024540                       # mshr miss rate for ReadReq accesses
system.cpu.dcache.ReadReq_mshr_miss_rate::total     0.024540                       # mshr miss rate for ReadReq accesses
system.cpu.dcache.ReadReq_avg_mshr_miss_latency::.cpu.data 102489.583333                       # average ReadReq mshr miss latency
system.cpu.dcache.ReadReq_avg_mshr_miss_latency::total 102489.583333                       # average ReadReq mshr miss latency
system.cpu.dcache.WriteReq_hits::.cpu.data         1604                       # number of WriteReq hits
system.cpu.dcache.WriteReq_hits::total           1604                       # number of WriteReq hits
system.cpu.dcache.WriteReq_misses::.cpu.data           31                       # number of WriteReq misses
system.cpu.dcache.WriteReq_misses::total           31                       # number of WriteReq misses
system.cpu.dcache.WriteReq_miss_latency::.cpu.data      3775000                       # number of WriteReq miss cycles
system.cpu.dcache.WriteReq_miss_latency::total      3775000                       # number of WriteReq miss cycles
system.cpu.dcache.WriteReq_accesses::.cpu.data         1635                       # number of WriteReq accesses(hits+misses)
system.cpu.dcache.WriteReq_accesses::total         1635                       # number of WriteReq accesses(hits+misses)
system.cpu.dcache.WriteReq_miss_rate::.cpu.data     0.018960                       # miss rate for WriteReq accesses
system.cpu.dcache.WriteReq_miss_rate::total     0.018960                       # miss rate for WriteReq accesses
system.cpu.dcache.WriteReq_avg_miss_latency::.cpu.data 121774.193548                       # average WriteReq miss latency
system.cpu.dcache.WriteReq_avg_miss_latency::total 121774.193548                       # average WriteReq miss latency
system.cpu.dcache.WriteReq_mshr_hits::.cpu.data           11                       # number of WriteReq MSHR hits
system.cpu.dcache.WriteReq_mshr_hits::total           11                       # number of WriteReq MSHR hits
system.cpu.dcache.WriteReq_mshr_misses::.cpu.data           20                       # number of WriteReq MSHR misses
system.cpu.dcache.WriteReq_mshr_misses::total           20                       # number of WriteReq MSHR misses
system.cpu.dcache.WriteReq_mshr_miss_latency::.cpu.data      2463500                       # number of WriteReq MSHR miss cycles
system.cpu.dcache.WriteReq_mshr_miss_latency::total      2463500                       # number of WriteReq MSHR miss cycles
system.cpu.dcache.WriteReq_mshr_miss_rate::.cpu.data     0.012232                       # mshr miss rate for WriteReq accesses
system.cpu.dcache.WriteReq_mshr_miss_rate::total     0.012232                       # mshr miss rate for WriteReq accesses
system.cpu.dcache.WriteReq_avg_mshr_miss_latency::.cpu.data       123175                       # average WriteReq mshr miss latency
system.cpu.dcache.WriteReq_avg_mshr_miss_latency::total       123175                       # average WriteReq mshr miss latency
system.cpu.dcache.SoftPFReq_hits::.cpu.data           46                       # number of SoftPFReq hits
system.cpu.dcache.SoftPFReq_hits::total            46                       # number of SoftPFReq hits
system.cpu.dcache.SoftPFReq_misses::.cpu.data            3                       # number of SoftPFReq misses
system.cpu.dcache.SoftPFReq_misses::total            3                       # number of SoftPFReq misses
system.cpu.dcache.SoftPFReq_accesses::.cpu.data           49                       # number of SoftPFReq accesses(hits+misses)
system.cpu.dcache.SoftPFReq_accesses::total           49                       # number of SoftPFReq accesses(hits+misses)
system.cpu.dcache.SoftPFReq_miss_rate::.cpu.data     0.061224                       # miss rate for SoftPFReq accesses
system.cpu.dcache.SoftPFReq_miss_rate::total     0.061224                       # miss rate for SoftPFReq accesses
system.cpu.dcache.SoftPFReq_mshr_misses::.cpu.data            2                       # number of SoftPFReq MSHR misses
system.cpu.dcache.SoftPFReq_mshr_misses::total            2                       # number of SoftPFReq MSHR misses
system.cpu.dcache.SoftPFReq_mshr_miss_latency::.cpu.data       327500                       # number of SoftPFReq MSHR miss cycles
system.cpu.dcache.SoftPFReq_mshr_miss_latency::total       327500                       # number of SoftPFReq MSHR miss cycles
system.cpu.dcache.SoftPFReq_mshr_miss_rate::.cpu.data     0.040816                       # mshr miss rate for SoftPFReq accesses
system.cpu.dcache.SoftPFReq_mshr_miss_rate::total     0.040816                       # mshr miss rate for SoftPFReq accesses
system.cpu.dcache.SoftPFReq_avg_mshr_miss_latency::.cpu.data       163750                       # average SoftPFReq mshr miss latency
system.cpu.dcache.SoftPFReq_avg_mshr_miss_latency::total       163750                       # average SoftPFReq mshr miss latency
system.cpu.dcache.LoadLockedReq_hits::.cpu.data           20                       # number of LoadLockedReq hits
system.cpu.dcache.LoadLockedReq_hits::total           20                       # number of LoadLockedReq hits
system.cpu.dcache.LoadLockedReq_accesses::.cpu.data           20                       # number of LoadLockedReq accesses(hits+misses)
system.cpu.dcache.LoadLockedReq_accesses::total           20                       # number of LoadLockedReq accesses(hits+misses)
system.cpu.dcache.StoreCondReq_hits::.cpu.data           20                       # number of StoreCondReq hits
system.cpu.dcache.StoreCondReq_hits::total           20                       # number of StoreCondReq hits
system.cpu.dcache.StoreCondReq_accesses::.cpu.data           20                       # number of StoreCondReq accesses(hits+misses)
system.cpu.dcache.StoreCondReq_accesses::total           20                       # number of StoreCondReq accesses(hits+misses)
system.cpu.dcache.power_state.pwrStateResidencyTicks::UNDEFINED     32293000                       # Cumulative time (in ticks) in various power states
system.cpu.dcache.tags.tagsinuse            37.570666                       # Cycle average of tags in use
system.cpu.dcache.tags.total_refs                3665                       # Total number of references to valid blocks.
system.cpu.dcache.tags.sampled_refs                70                       # Sample count of references to valid blocks.
system.cpu.dcache.tags.avg_refs             52.357143                       # Average number of references to valid blocks.
system.cpu.dcache.tags.warmup_cycle            270500                       # Cycle when the warmup percentage was hit.
system.cpu.dcache.tags.occ_blocks::.cpu.data    37.570666                       # Average occupied blocks per requestor
system.cpu.dcache.tags.occ_percent::.cpu.data     0.293521                       # Average percentage of cache occupancy
system.cpu.dcache.tags.occ_percent::total     0.293521                       # Average percentage of cache occupancy
system.cpu.dcache.tags.occ_task_id_blocks::1024           63                       # Occupied blocks per task id
system.cpu.dcache.tags.age_task_id_blocks_1024::0           15                       # Occupied blocks per task id
system.cpu.dcache.tags.age_task_id_blocks_1024::1           48                       # Occupied blocks per task id
system.cpu.dcache.tags.occ_task_id_percent::1024     0.492188                       # Percentage of cache occupancy per task id
system.cpu.dcache.tags.tag_accesses              7430                       # Number of tag accesses
system.cpu.dcache.tags.data_accesses             7430                       # Number of data accesses
system.cpu.dcache.tags.power_state.pwrStateResidencyTicks::UNDEFINED     32293000                       # Cumulative time (in ticks) in various power states
system.cpu.dtb.instHits                             0                       # ITB inst hits
system.cpu.dtb.instMisses                           0                       # ITB inst misses
system.cpu.dtb.readHits                             0                       # DTB read hits
system.cpu.dtb.readMisses                           0                       # DTB read misses
system.cpu.dtb.writeHits                            0                       # DTB write hits
system.cpu.dtb.writeMisses                          0                       # DTB write misses
system.cpu.dtb.inserts                              0                       # Number of times an entry is inserted into the TLB
system.cpu.dtb.flushTlb                             0                       # Number of times complete TLB was flushed
system.cpu.dtb.flushTlbMva                          0                       # Number of times TLB was flushed by MVA
system.cpu.dtb.flushTlbMvaAsid                      0                       # Number of times TLB was flushed by MVA & ASID
system.cpu.dtb.flushTlbAsid                         0                       # Number of times TLB was flushed by ASID
system.cpu.dtb.flushedEntries                       0                       # Number of entries that have been flushed from TLB
system.cpu.dtb.alignFaults                          0                       # Number of TLB faults due to alignment restrictions
system.cpu.dtb.prefetchFaults                       0                       # Number of TLB faults due to prefetch
system.cpu.dtb.domainFaults                         0                       # Number of TLB faults due to domain restrictions
system.cpu.dtb.permsFaults                          0                       # Number of TLB faults due to permissions restrictions
system.cpu.dtb.readAccesses                         0                       # DTB read accesses
system.cpu.dtb.writeAccesses                        0                       # DTB write accesses
system.cpu.dtb.instAccesses                         0                       # ITB inst accesses
system.cpu.dtb.hits                                 0                       # Total TLB (inst and data) hits
system.cpu.dtb.misses                               0                       # Total TLB (inst and data) misses
system.cpu.dtb.accesses                             0                       # Total TLB (inst and data) accesses
system.cpu.dtb.stage2_mmu.stage2_tlb.instHits            0                       # ITB inst hits
system.cpu.dtb.stage2_mmu.stage2_tlb.instMisses            0                       # ITB inst misses
system.cpu.dtb.stage2_mmu.stage2_tlb.readHits            0                       # DTB read hits
system.cpu.dtb.stage2_mmu.stage2_tlb.readMisses            0                       # DTB read misses
system.cpu.dtb.stage2_mmu.stage2_tlb.writeHits            0                       # DTB write hits
system.cpu.dtb.stage2_mmu.stage2_tlb.writeMisses            0                       # DTB write misses
system.cpu.dtb.stage2_mmu.stage2_tlb.inserts            0                       # Number of times an entry is inserted into the TLB
system.cpu.dtb.stage2_mmu.stage2_tlb.flushTlb            0                       # Number of times complete TLB was flushed
system.cpu.dtb.stage2_mmu.stage2_tlb.flushTlbMva            0                       # Number of times TLB was flushed by MVA
system.cpu.dtb.stage2_mmu.stage2_tlb.flushTlbMvaAsid            0                       # Number of times TLB was flushed by MVA & ASID
system.cpu.dtb.stage2_mmu.stage2_tlb.flushTlbAsid            0                       # Number of times TLB was flushed by ASID
system.cpu.dtb.stage2_mmu.stage2_tlb.flushedEntries            0                       # Number of entries that have been flushed from TLB
system.cpu.dtb.stage2_mmu.stage2_tlb.alignFaults            0                       # Number of TLB faults due to alignment restrictions
system.cpu.dtb.stage2_mmu.stage2_tlb.prefetchFaults            0                       # Number of TLB faults due to prefetch
system.cpu.dtb.stage2_mmu.stage2_tlb.domainFaults            0                       # Number of TLB faults due to domain restrictions
system.cpu.dtb.stage2_mmu.stage2_tlb.permsFaults            0                       # Number of TLB faults due to permissions restrictions
system.cpu.dtb.stage2_mmu.stage2_tlb.readAccesses            0                       # DTB read accesses
system.cpu.dtb.stage2_mmu.stage2_tlb.writeAccesses            0                       # DTB write accesses
system.cpu.dtb.stage2_mmu.stage2_tlb.instAccesses            0                       # ITB inst accesses
system.cpu.dtb.stage2_mmu.stage2_tlb.hits            0                       # Total TLB (inst and data) hits
system.cpu.dtb.stage2_mmu.stage2_tlb.misses            0                       # Total TLB (inst and data) misses
system.cpu.dtb.stage2_mmu.stage2_tlb.accesses            0                       # Total TLB (inst and data) accesses
system.cpu.dtb.stage2_mmu.stage2_tlb.walker.walks            0                       # Table walker walks requested
system.cpu.dtb.stage2_mmu.stage2_tlb.walker.requestOrigin_Requested::Data            0                       # Table walker requests started/completed, data/inst
system.cpu.dtb.stage2_mmu.stage2_tlb.walker.requestOrigin_Requested::Inst            0                       # Table walker requests started/completed, data/inst
system.cpu.dtb.stage2_mmu.stage2_tlb.walker.requestOrigin_Requested::total            0                       # Table walker requests started/completed, data/inst
system.cpu.dtb.stage2_mmu.stage2_tlb.walker.requestOrigin_Completed::Data            0                       # Table walker requests started/completed, data/inst
system.cpu.dtb.stage2_mmu.stage2_tlb.walker.requestOrigin_Completed::Inst            0                       # Table walker requests started/completed, data/inst
system.cpu.dtb.stage2_mmu.stage2_tlb.walker.requestOrigin_Completed::total            0                       # Table walker requests started/completed, data/inst
system.cpu.dtb.stage2_mmu.stage2_tlb.walker.requestOrigin::total            0                       # Table walker requests started/completed, data/inst
system.cpu.dtb.stage2_mmu.stage2_tlb.walker.power_state.pwrStateResidencyTicks::UNDEFINED     32293000                       # Cumulative time (in ticks) in various power states
system.cpu.dtb.walker.walks                         0                       # Table walker walks requested
system.cpu.dtb.walker.requestOrigin_Requested::Data            0                       # Table walker requests started/completed, data/inst
system.cpu.dtb.walker.requestOrigin_Requested::Inst            0                       # Table walker requests started/completed, data/inst
system.cpu.dtb.walker.requestOrigin_Requested::total            0                       # Table walker requests started/completed, data/inst
system.cpu.dtb.walker.requestOrigin_Completed::Data            0                       # Table walker requests started/completed, data/inst
system.cpu.dtb.walker.requestOrigin_Completed::Inst            0                       # Table walker requests started/completed, data/inst
system.cpu.dtb.walker.requestOrigin_Completed::total            0                       # Table walker requests started/completed, data/inst
system.cpu.dtb.walker.requestOrigin::total            0                       # Table walker requests started/completed, data/inst
system.cpu.dtb.walker.power_state.pwrStateResidencyTicks::UNDEFINED     32293000                       # Cumulative time (in ticks) in various power states
system.cpu.fetch2.intInstructions               10927                       # Number of integer instructions successfully decoded
system.cpu.fetch2.fpInstructions                    0                       # Number of floating point instructions successfully decoded
system.cpu.fetch2.vecInstructions                   0                       # Number of SIMD instructions successfully decoded
system.cpu.fetch2.loadInstructions               2601                       # Number of memory load instructions successfully decoded
system.cpu.fetch2.storeInstructions              1381                       # Number of memory store instructions successfully decoded
system.cpu.fetch2.amoInstructions                   0                       # Number of memory atomic instructions successfully decoded
system.cpu.icache.demand_hits::.cpu.inst         3174                       # number of demand (read+write) hits
system.cpu.icache.demand_hits::total             3174                       # number of demand (read+write) hits
system.cpu.icache.overall_hits::.cpu.inst         3174                       # number of overall hits
system.cpu.icache.overall_hits::total            3174                       # number of overall hits
system.cpu.icache.demand_misses::.cpu.inst          213                       # number of demand (read+write) misses
system.cpu.icache.demand_misses::total            213                       # number of demand (read+write) misses
system.cpu.icache.overall_misses::.cpu.inst          213                       # number of overall misses
system.cpu.icache.overall_misses::total           213                       # number of overall misses
system.cpu.icache.demand_miss_latency::.cpu.inst     20242000                       # number of demand (read+write) miss cycles
system.cpu.icache.demand_miss_latency::total     20242000                       # number of demand (read+write) miss cycles
system.cpu.icache.overall_miss_latency::.cpu.inst     20242000                       # number of overall miss cycles
system.cpu.icache.overall_miss_latency::total     20242000                       # number of overall miss cycles
system.cpu.icache.demand_accesses::.cpu.inst         3387                       # number of demand (read+write) accesses
system.cpu.icache.demand_accesses::total         3387                       # number of demand (read+write) accesses
system.cpu.icache.overall_accesses::.cpu.inst         3387                       # number of overall (read+write) accesses
system.cpu.icache.overall_accesses::total         3387                       # number of overall (read+write) accesses
system.cpu.icache.demand_miss_rate::.cpu.inst     0.062888                       # miss rate for demand accesses
system.cpu.icache.demand_miss_rate::total     0.062888                       # miss rate for demand accesses
system.cpu.icache.overall_miss_rate::.cpu.inst     0.062888                       # miss rate for overall accesses
system.cpu.icache.overall_miss_rate::total     0.062888                       # miss rate for overall accesses
system.cpu.icache.demand_avg_miss_latency::.cpu.inst 95032.863850                       # average overall miss latency
system.cpu.icache.demand_avg_miss_latency::total 95032.863850                       # average overall miss latency
system.cpu.icache.overall_avg_miss_latency::.cpu.inst 95032.863850                       # average overall miss latency
system.cpu.icache.overall_avg_miss_latency::total 95032.863850                       # average overall miss latency
system.cpu.icache.blocked_cycles::no_mshrs            0                       # number of cycles access was blocked
system.cpu.icache.blocked_cycles::no_targets            0                       # number of cycles access was blocked
system.cpu.icache.blocked::no_mshrs                 0                       # number of cycles access was blocked
system.cpu.icache.blocked::no_targets               0                       # number of cycles access was blocked
system.cpu.icache.avg_blocked_cycles::no_mshrs          nan                       # average number of cycles each access was blocked
system.cpu.icache.avg_blocked_cycles::no_targets          nan                       # average number of cycles each access was blocked
system.cpu.icache.writebacks::.writebacks          150                       # number of writebacks
system.cpu.icache.writebacks::total               150                       # number of writebacks
system.cpu.icache.demand_mshr_misses::.cpu.inst          213                       # number of demand (read+write) MSHR misses
system.cpu.icache.demand_mshr_misses::total          213                       # number of demand (read+write) MSHR misses
system.cpu.icache.overall_mshr_misses::.cpu.inst          213                       # number of overall MSHR misses
system.cpu.icache.overall_mshr_misses::total          213                       # number of overall MSHR misses
system.cpu.icache.demand_mshr_miss_latency::.cpu.inst     20029000                       # number of demand (read+write) MSHR miss cycles
system.cpu.icache.demand_mshr_miss_latency::total     20029000                       # number of demand (read+write) MSHR miss cycles
system.cpu.icache.overall_mshr_miss_latency::.cpu.inst     20029000                       # number of overall MSHR miss cycles
system.cpu.icache.overall_mshr_miss_latency::total     20029000                       # number of overall MSHR miss cycles
system.cpu.icache.demand_mshr_miss_rate::.cpu.inst     0.062888                       # mshr miss rate for demand accesses
system.cpu.icache.demand_mshr_miss_rate::total     0.062888                       # mshr miss rate for demand accesses
system.cpu.icache.overall_mshr_miss_rate::.cpu.inst     0.062888                       # mshr miss rate for overall accesses
system.cpu.icache.overall_mshr_miss_rate::total     0.062888                       # mshr miss rate for overall accesses
system.cpu.icache.demand_avg_mshr_miss_latency::.cpu.inst 94032.863850                       # average overall mshr miss latency
system.cpu.icache.demand_avg_mshr_miss_latency::total 94032.863850                       # average overall mshr miss latency
system.cpu.icache.overall_avg_mshr_miss_latency::.cpu.inst 94032.863850                       # average overall mshr miss latency
system.cpu.icache.overall_avg_mshr_miss_latency::total 94032.863850                       # average overall mshr miss latency
system.cpu.icache.replacements                    150                       # number of replacements
system.cpu.icache.ReadReq_hits::.cpu.inst         3174                       # number of ReadReq hits
system.cpu.icache.ReadReq_hits::total            3174                       # number of ReadReq hits
system.cpu.icache.ReadReq_misses::.cpu.inst          213                       # number of ReadReq misses
system.cpu.icache.ReadReq_misses::total           213                       # number of ReadReq misses
system.cpu.icache.ReadReq_miss_latency::.cpu.inst     20242000                       # number of ReadReq miss cycles
system.cpu.icache.ReadReq_miss_latency::total     20242000                       # number of ReadReq miss cycles
system.cpu.icache.ReadReq_accesses::.cpu.inst         3387                       # number of ReadReq accesses(hits+misses)
system.cpu.icache.ReadReq_accesses::total         3387                       # number of ReadReq accesses(hits+misses)
system.cpu.icache.ReadReq_miss_rate::.cpu.inst     0.062888                       # miss rate for ReadReq accesses
system.cpu.icache.ReadReq_miss_rate::total     0.062888                       # miss rate for ReadReq accesses
system.cpu.icache.ReadReq_avg_miss_latency::.cpu.inst 95032.863850                       # average ReadReq miss latency
system.cpu.icache.ReadReq_avg_miss_latency::total 95032.863850                       # average ReadReq miss latency
system.cpu.icache.ReadReq_mshr_misses::.cpu.inst          213                       # number of ReadReq MSHR misses
system.cpu.icache.ReadReq_mshr_misses::total          213                       # number of ReadReq MSHR misses
system.cpu.icache.ReadReq_mshr_miss_latency::.cpu.inst     20029000                       # number of ReadReq MSHR miss cycles
system.cpu.icache.ReadReq_mshr_miss_latency::total     20029000                       # number of ReadReq MSHR miss cycles
system.cpu.icache.ReadReq_mshr_miss_rate::.cpu.inst     0.062888                       # mshr miss rate for ReadReq accesses
system.cpu.icache.ReadReq_mshr_miss_rate::total     0.062888                       # mshr miss rate for ReadReq accesses
system.cpu.icache.ReadReq_avg_mshr_miss_latency::.cpu.inst 94032.863850                       # average ReadReq mshr miss latency
system.cpu.icache.ReadReq_avg_mshr_miss_latency::total 94032.863850                       # average ReadReq mshr miss latency
system.cpu.icache.power_state.pwrStateResidencyTicks::UNDEFINED     32293000                       # Cumulative time (in ticks) in various power states
system.cpu.icache.tags.tagsinuse            49.370282                       # Cycle average of tags in use
system.cpu.icache.tags.total_refs                3387                       # Total number of references to valid blocks.
system.cpu.icache.tags.sampled_refs               213                       # Sample count of references to valid blocks.
system.cpu.icache.tags.avg_refs             15.901408                       # Average number of references to valid blocks.
system.cpu.icache.tags.warmup_cycle            122500                       # Cycle when the warmup percentage was hit.
system.cpu.icache.tags.occ_blocks::.cpu.inst    49.370282                       # Average occupied blocks per requestor
system.cpu.icache.tags.occ_percent::.cpu.inst     0.771411                       # Average percentage of cache occupancy
system.cpu.icache.tags.occ_percent::total     0.771411                       # Average percentage of cache occupancy
system.cpu.icache.tags.occ_task_id_blocks::1024           63                       # Occupied blocks per task id
system.cpu.icache.tags.age_task_id_blocks_1024::0           50                       # Occupied blocks per task id
system.cpu.icache.tags.age_task_id_blocks_1024::1           13                       # Occupied blocks per task id
system.cpu.icache.tags.occ_task_id_percent::1024     0.984375                       # Percentage of cache occupancy per task id
system.cpu.icache.tags.tag_accesses              6987                       # Number of tag accesses
system.cpu.icache.tags.data_accesses             6987                       # Number of data accesses
system.cpu.icache.tags.power_state.pwrStateResidencyTicks::UNDEFINED     32293000                       # Cumulative time (in ticks) in various power states
system.cpu.itb.instHits                             0                       # ITB inst hits
system.cpu.itb.instMisses                           0                       # ITB inst misses
system.cpu.itb.readHits                             0                       # DTB read hits
system.cpu.itb.readMisses                           0                       # DTB read misses
system.cpu.itb.writeHits                            0                       # DTB write hits
system.cpu.itb.writeMisses                          0                       # DTB write misses
system.cpu.itb.inserts                              0                       # Number of times an entry is inserted into the TLB
system.cpu.itb.flushTlb                             0                       # Number of times complete TLB was flushed
system.cpu.itb.flushTlbMva                          0                       # Number of times TLB was flushed by MVA
system.cpu.itb.flushTlbMvaAsid                      0                       # Number of times TLB was flushed by MVA & ASID
system.cpu.itb.flushTlbAsid                         0                       # Number of times TLB was flushed by ASID
system.cpu.itb.flushedEntries                       0                       # Number of entries that have been flushed from TLB
system.cpu.itb.alignFaults                          0                       # Number of TLB faults due to alignment restrictions
system.cpu.itb.prefetchFaults                       0                       # Number of TLB faults due to prefetch
system.cpu.itb.domainFaults                         0                       # Number of TLB faults due to domain restrictions
system.cpu.itb.permsFaults                          0                       # Number of TLB faults due to permissions restrictions
system.cpu.itb.readAccesses                         0                       # DTB read accesses
system.cpu.itb.writeAccesses                        0                       # DTB write accesses
system.cpu.itb.instAccesses                         0                       # ITB inst accesses
system.cpu.itb.hits                                 0                       # Total TLB (inst and data) hits
system.cpu.itb.misses                               0                       # Total TLB (inst and data) misses
system.cpu.itb.accesses                             0                       # Total TLB (inst and data) accesses
system.cpu.itb.stage2_mmu.stage2_tlb.instHits            0                       # ITB inst hits
system.cpu.itb.stage2_mmu.stage2_tlb.instMisses            0                       # ITB inst misses
system.cpu.itb.stage2_mmu.stage2_tlb.readHits            0                       # DTB read hits
system.cpu.itb.stage2_mmu.stage2_tlb.readMisses            0                       # DTB read misses
system.cpu.itb.stage2_mmu.stage2_tlb.writeHits            0                       # DTB write hits
system.cpu.itb.stage2_mmu.stage2_tlb.writeMisses            0                       # DTB write misses
system.cpu.itb.stage2_mmu.stage2_tlb.inserts            0                       # Number of times an entry is inserted into the TLB
system.cpu.itb.stage2_mmu.stage2_tlb.flushTlb            0                       # Number of times complete TLB was flushed
system.cpu.itb.stage2_mmu.stage2_tlb.flushTlbMva            0                       # Number of times TLB was flushed by MVA
system.cpu.itb.stage2_mmu.stage2_tlb.flushTlbMvaAsid            0                       # Number of times TLB was flushed by MVA & ASID
system.cpu.itb.stage2_mmu.stage2_tlb.flushTlbAsid            0                       # Number of times TLB was flushed by ASID
system.cpu.itb.stage2_mmu.stage2_tlb.flushedEntries            0                       # Number of entries that have been flushed from TLB
system.cpu.itb.stage2_mmu.stage2_tlb.alignFaults            0                       # Number of TLB faults due to alignment restrictions
system.cpu.itb.stage2_mmu.stage2_tlb.prefetchFaults            0                       # Number of TLB faults due to prefetch
system.cpu.itb.stage2_mmu.stage2_tlb.domainFaults            0                       # Number of TLB faults due to domain restrictions
system.cpu.itb.stage2_mmu.stage2_tlb.permsFaults            0                       # Number of TLB faults due to permissions restrictions
system.cpu.itb.stage2_mmu.stage2_tlb.readAccesses            0                       # DTB read accesses
system.cpu.itb.stage2_mmu.stage2_tlb.writeAccesses            0                       # DTB write accesses
system.cpu.itb.stage2_mmu.stage2_tlb.instAccesses            0                       # ITB inst accesses
system.cpu.itb.stage2_mmu.stage2_tlb.hits            0                       # Total TLB (inst and data) hits
system.cpu.itb.stage2_mmu.stage2_tlb.misses            0                       # Total TLB (inst and data) misses
system.cpu.itb.stage2_mmu.stage2_tlb.accesses            0                       # Total TLB (inst and data) accesses
system.cpu.itb.stage2_mmu.stage2_tlb.walker.walks            0                       # Table walker walks requested
system.cpu.itb.stage2_mmu.stage2_tlb.walker.requestOrigin_Requested::Data            0                       # Table walker requests started/completed, data/inst
system.cpu.itb.stage2_mmu.stage2_tlb.walker.requestOrigin_Requested::Inst            0                       # Table walker requests started/completed, data/inst
system.cpu.itb.stage2_mmu.stage2_tlb.walker.requestOrigin_Requested::total            0                       # Table walker requests started/completed, data/inst
system.cpu.itb.stage2_mmu.stage2_tlb.walker.requestOrigin_Completed::Data            0                       # Table walker requests started/completed, data/inst
system.cpu.itb.stage2_mmu.stage2_tlb.walker.requestOrigin_Completed::Inst            0                       # Table walker requests started/completed, data/inst
system.cpu.itb.stage2_mmu.stage2_tlb.walker.requestOrigin_Completed::total            0                       # Table walker requests started/completed, data/inst
system.cpu.itb.stage2_mmu.stage2_tlb.walker.requestOrigin::total            0                       # Table walker requests started/completed, data/inst
system.cpu.itb.stage2_mmu.stage2_tlb.walker.power_state.pwrStateResidencyTicks::UNDEFINED     32293000                       # Cumulative time (in ticks) in various power states
system.cpu.itb.walker.walks                         0                       # Table walker walks requested
system.cpu.itb.walker.requestOrigin_Requested::Data            0                       # Table walker requests started/completed, data/inst
system.cpu.itb.walker.requestOrigin_Requested::Inst            0                       # Table walker requests started/completed, data/inst
system.cpu.itb.walker.requestOrigin_Requested::total            0                       # Table walker requests started/completed, data/inst
system.cpu.itb.walker.requestOrigin_Completed::Data            0                       # Table walker requests started/completed, data/inst
system.cpu.itb.walker.requestOrigin_Completed::Inst            0                       # Table walker requests started/completed, data/inst
system.cpu.itb.walker.requestOrigin_Completed::total            0                       # Table walker requests started/completed, data/inst
system.cpu.itb.walker.requestOrigin::total            0                       # Table walker requests started/completed, data/inst
system.cpu.itb.walker.power_state.pwrStateResidencyTicks::UNDEFINED     32293000                       # Cumulative time (in ticks) in various power states
system.cpu.power_state.pwrStateResidencyTicks::ON     32293000                       # Cumulative time (in ticks) in various power states
system.cpu.thread0.numInsts                     10204                       # Number of Instructions committed
system.cpu.thread0.numOps                       11680                       # Number of Ops committed
system.cpu.thread0.numMemRefs                       0                       # Number of Memory References
system.cpu_clk_domain.clock                       500                       # Clock period in ticks
system.cpu_voltage_domain.voltage                   1                       # Voltage in Volts
system.l2.demand_hits::.cpu.inst                   56                       # number of demand (read+write) hits
system.l2.demand_hits::.cpu.data                   15                       # number of demand (read+write) hits
system.l2.demand_hits::total                       71                       # number of demand (read+write) hits
system.l2.overall_hits::.cpu.inst                  56                       # number of overall hits
system.l2.overall_hits::.cpu.data                  15                       # number of overall hits
system.l2.overall_hits::total                      71                       # number of overall hits
system.l2.demand_misses::.cpu.inst                157                       # number of demand (read+write) misses
system.l2.demand_misses::.cpu.data                 55                       # number of demand (read+write) misses
system.l2.demand_misses::total                    212                       # number of demand (read+write) misses
system.l2.overall_misses::.cpu.inst               157                       # number of overall misses
system.l2.overall_misses::.cpu.data                55                       # number of overall misses
system.l2.overall_misses::total                   212                       # number of overall misses
system.l2.demand_miss_latency::.cpu.inst     18694500                       # number of demand (read+write) miss cycles
system.l2.demand_miss_latency::.cpu.data      7354000                       # number of demand (read+write) miss cycles
system.l2.demand_miss_latency::total         26048500                       # number of demand (read+write) miss cycles
system.l2.overall_miss_latency::.cpu.inst     18694500                       # number of overall miss cycles
system.l2.overall_miss_latency::.cpu.data      7354000                       # number of overall miss cycles
system.l2.overall_miss_latency::total        26048500                       # number of overall miss cycles
system.l2.demand_accesses::.cpu.inst              213                       # number of demand (read+write) accesses
system.l2.demand_accesses::.cpu.data               70                       # number of demand (read+write) accesses
system.l2.demand_accesses::total                  283                       # number of demand (read+write) accesses
system.l2.overall_accesses::.cpu.inst             213                       # number of overall (read+write) accesses
system.l2.overall_accesses::.cpu.data              70                       # number of overall (read+write) accesses
system.l2.overall_accesses::total                 283                       # number of overall (read+write) accesses
system.l2.demand_miss_rate::.cpu.inst        0.737089                       # miss rate for demand accesses
system.l2.demand_miss_rate::.cpu.data        0.785714                       # miss rate for demand accesses
system.l2.demand_miss_rate::total            0.749117                       # miss rate for demand accesses
system.l2.overall_miss_rate::.cpu.inst       0.737089                       # miss rate for overall accesses
system.l2.overall_miss_rate::.cpu.data       0.785714                       # miss rate for overall accesses
system.l2.overall_miss_rate::total           0.749117                       # miss rate for overall accesses
system.l2.demand_avg_miss_latency::.cpu.inst 119073.248408                       # average overall miss latency
system.l2.demand_avg_miss_latency::.cpu.data 133709.090909                       # average overall miss latency
system.l2.demand_avg_miss_latency::total 122870.283019                       # average overall miss latency
system.l2.overall_avg_miss_latency::.cpu.inst 119073.248408                       # average overall miss latency
system.l2.overall_avg_miss_latency::.cpu.data 133709.090909                       # average overall miss latency
system.l2.overall_avg_miss_latency::total 122870.283019                       # average overall miss latency
system.l2.blocked_cycles::no_mshrs                  0                       # number of cycles access was blocked
system.l2.blocked_cycles::no_targets                0                       # number of cycles access was blocked
system.l2.blocked::no_mshrs                         0                       # number of cycles access was blocked
system.l2.blocked::no_targets                       0                       # number of cycles access was blocked
system.l2.avg_blocked_cycles::no_mshrs            nan                       # average number of cycles each access was blocked
system.l2.avg_blocked_cycles::no_targets          nan                       # average number of cycles each access was blocked
system.l2.demand_mshr_hits::.cpu.data               4                       # number of demand (read+write) MSHR hits
system.l2.demand_mshr_hits::total                   4                       # number of demand (read+write) MSHR hits
system.l2.overall_mshr_hits::.cpu.data              4                       # number of overall MSHR hits
system.l2.overall_mshr_hits::total                  4                       # number of overall MSHR hits
system.l2.demand_mshr_misses::.cpu.inst           157                       # number of demand (read+write) MSHR misses
system.l2.demand_mshr_misses::.cpu.data            51                       # number of demand (read+write) MSHR misses
system.l2.demand_mshr_misses::total               208                       # number of demand (read+write) MSHR misses
system.l2.overall_mshr_misses::.cpu.inst          157                       # number of overall MSHR misses
system.l2.overall_mshr_misses::.cpu.data           51                       # number of overall MSHR misses
system.l2.overall_mshr_misses::total              208                       # number of overall MSHR misses
system.l2.demand_mshr_miss_latency::.cpu.inst     17124500                       # number of demand (read+write) MSHR miss cycles
system.l2.demand_mshr_miss_latency::.cpu.data      6424000                       # number of demand (read+write) MSHR miss cycles
system.l2.demand_mshr_miss_latency::total     23548500                       # number of demand (read+write) MSHR miss cycles
system.l2.overall_mshr_miss_latency::.cpu.inst     17124500                       # number of overall MSHR miss cycles
system.l2.overall_mshr_miss_latency::.cpu.data      6424000                       # number of overall MSHR miss cycles
system.l2.overall_mshr_miss_latency::total     23548500                       # number of overall MSHR miss cycles
system.l2.demand_mshr_miss_rate::.cpu.inst     0.737089                       # mshr miss rate for demand accesses
system.l2.demand_mshr_miss_rate::.cpu.data     0.728571                       # mshr miss rate for demand accesses
system.l2.demand_mshr_miss_rate::total       0.734982                       # mshr miss rate for demand accesses
system.l2.overall_mshr_miss_rate::.cpu.inst     0.737089                       # mshr miss rate for overall accesses
system.l2.overall_mshr_miss_rate::.cpu.data     0.728571                       # mshr miss rate for overall accesses
system.l2.overall_mshr_miss_rate::total      0.734982                       # mshr miss rate for overall accesses
system.l2.demand_avg_mshr_miss_latency::.cpu.inst 109073.248408                       # average overall mshr miss latency
system.l2.demand_avg_mshr_miss_latency::.cpu.data 125960.784314                       # average overall mshr miss latency
system.l2.demand_avg_mshr_miss_latency::total 113213.942308                       # average overall mshr miss latency
system.l2.overall_avg_mshr_miss_latency::.cpu.inst 109073.248408                       # average overall mshr miss latency
system.l2.overall_avg_mshr_miss_latency::.cpu.data 125960.784314                       # average overall mshr miss latency
system.l2.overall_avg_mshr_miss_latency::total 113213.942308                       # average overall mshr miss latency
system.l2.replacements                              0                       # number of replacements
system.l2.WritebackDirty_hits::.writebacks            2                       # number of WritebackDirty hits
system.l2.WritebackDirty_hits::total                2                       # number of WritebackDirty hits
system.l2.WritebackDirty_accesses::.writebacks            2                       # number of WritebackDirty accesses(hits+misses)
system.l2.WritebackDirty_accesses::total            2                       # number of WritebackDirty accesses(hits+misses)
system.l2.WritebackClean_hits::.writebacks          127                       # number of WritebackClean hits
system.l2.WritebackClean_hits::total              127                       # number of WritebackClean hits
system.l2.WritebackClean_accesses::.writebacks          127                       # number of WritebackClean accesses(hits+misses)
system.l2.WritebackClean_accesses::total          127                       # number of WritebackClean accesses(hits+misses)
system.l2.ReadExReq_hits::.cpu.data                 1                       # number of ReadExReq hits
system.l2.ReadExReq_hits::total                     1                       # number of ReadExReq hits
system.l2.ReadExReq_misses::.cpu.data              19                       # number of ReadExReq misses
system.l2.ReadExReq_misses::total                  19                       # number of ReadExReq misses
system.l2.ReadExReq_miss_latency::.cpu.data      2423000                       # number of ReadExReq miss cycles
system.l2.ReadExReq_miss_latency::total       2423000                       # number of ReadExReq miss cycles
system.l2.ReadExReq_accesses::.cpu.data            20                       # number of ReadExReq accesses(hits+misses)
system.l2.ReadExReq_accesses::total                20                       # number of ReadExReq accesses(hits+misses)
system.l2.ReadExReq_miss_rate::.cpu.data     0.950000                       # miss rate for ReadExReq accesses
system.l2.ReadExReq_miss_rate::total         0.950000                       # miss rate for ReadExReq accesses
system.l2.ReadExReq_avg_miss_latency::.cpu.data 127526.315789                       # average ReadExReq miss latency
system.l2.ReadExReq_avg_miss_latency::total 127526.315789                       # average ReadExReq miss latency
system.l2.ReadExReq_mshr_misses::.cpu.data           19                       # number of ReadExReq MSHR misses
system.l2.ReadExReq_mshr_misses::total             19                       # number of ReadExReq MSHR misses
system.l2.ReadExReq_mshr_miss_latency::.cpu.data      2233000                       # number of ReadExReq MSHR miss cycles
system.l2.ReadExReq_mshr_miss_latency::total      2233000                       # number of ReadExReq MSHR miss cycles
system.l2.ReadExReq_mshr_miss_rate::.cpu.data     0.950000                       # mshr miss rate for ReadExReq accesses
system.l2.ReadExReq_mshr_miss_rate::total     0.950000                       # mshr miss rate for ReadExReq accesses
system.l2.ReadExReq_avg_mshr_miss_latency::.cpu.data 117526.315789                       # average ReadExReq mshr miss latency
system.l2.ReadExReq_avg_mshr_miss_latency::total 117526.315789                       # average ReadExReq mshr miss latency
system.l2.ReadCleanReq_hits::.cpu.inst             56                       # number of ReadCleanReq hits
system.l2.ReadCleanReq_hits::total                 56                       # number of ReadCleanReq hits
system.l2.ReadCleanReq_misses::.cpu.inst          157                       # number of ReadCleanReq misses
system.l2.ReadCleanReq_misses::total              157                       # number of ReadCleanReq misses
system.l2.ReadCleanReq_miss_latency::.cpu.inst     18694500                       # number of ReadCleanReq miss cycles
system.l2.ReadCleanReq_miss_latency::total     18694500                       # number of ReadCleanReq miss cycles
system.l2.ReadCleanReq_accesses::.cpu.inst          213                       # number of ReadCleanReq accesses(hits+misses)
system.l2.ReadCleanReq_accesses::total            213                       # number of ReadCleanReq accesses(hits+misses)
system.l2.ReadCleanReq_miss_rate::.cpu.inst     0.737089                       # miss rate for ReadCleanReq accesses
system.l2.ReadCleanReq_miss_rate::total      0.737089                       # miss rate for ReadCleanReq accesses
system.l2.ReadCleanReq_avg_miss_latency::.cpu.inst 119073.248408                       # average ReadCleanReq miss latency
system.l2.ReadCleanReq_avg_miss_latency::total 119073.248408                       # average ReadCleanReq miss latency
system.l2.ReadCleanReq_mshr_misses::.cpu.inst          157                       # number of ReadCleanReq MSHR misses
system.l2.ReadCleanReq_mshr_misses::total          157                       # number of ReadCleanReq MSHR misses
system.l2.ReadCleanReq_mshr_miss_latency::.cpu.inst     17124500                       # number of ReadCleanReq MSHR miss cycles
system.l2.ReadCleanReq_mshr_miss_latency::total     17124500                       # number of ReadCleanReq MSHR miss cycles
system.l2.ReadCleanReq_mshr_miss_rate::.cpu.inst     0.737089                       # mshr miss rate for ReadCleanReq accesses
system.l2.ReadCleanReq_mshr_miss_rate::total     0.737089                       # mshr miss rate for ReadCleanReq accesses
system.l2.ReadCleanReq_avg_mshr_miss_latency::.cpu.inst 109073.248408                       # average ReadCleanReq mshr miss latency
system.l2.ReadCleanReq_avg_mshr_miss_latency::total 109073.248408                       # average ReadCleanReq mshr miss latency
system.l2.ReadSharedReq_hits::.cpu.data            14                       # number of ReadSharedReq hits
system.l2.ReadSharedReq_hits::total                14                       # number of ReadSharedReq hits
system.l2.ReadSharedReq_misses::.cpu.data           36                       # number of ReadSharedReq misses
system.l2.ReadSharedReq_misses::total              36                       # number of ReadSharedReq misses
system.l2.ReadSharedReq_miss_latency::.cpu.data      4931000                       # number of ReadSharedReq miss cycles
system.l2.ReadSharedReq_miss_latency::total      4931000                       # number of ReadSharedReq miss cycles
system.l2.ReadSharedReq_accesses::.cpu.data           50                       # number of ReadSharedReq accesses(hits+misses)
system.l2.ReadSharedReq_accesses::total            50                       # number of ReadSharedReq accesses(hits+misses)
system.l2.ReadSharedReq_miss_rate::.cpu.data     0.720000                       # miss rate for ReadSharedReq accesses
system.l2.ReadSharedReq_miss_rate::total     0.720000                       # miss rate for ReadSharedReq accesses
system.l2.ReadSharedReq_avg_miss_latency::.cpu.data 136972.222222                       # average ReadSharedReq miss latency
system.l2.ReadSharedReq_avg_miss_latency::total 136972.222222                       # average ReadSharedReq miss latency
system.l2.ReadSharedReq_mshr_hits::.cpu.data            4                       # number of ReadSharedReq MSHR hits
system.l2.ReadSharedReq_mshr_hits::total            4                       # number of ReadSharedReq MSHR hits
system.l2.ReadSharedReq_mshr_misses::.cpu.data           32                       # number of ReadSharedReq MSHR misses
system.l2.ReadSharedReq_mshr_misses::total           32                       # number of ReadSharedReq MSHR misses
system.l2.ReadSharedReq_mshr_miss_latency::.cpu.data      4191000                       # number of ReadSharedReq MSHR miss cycles
system.l2.ReadSharedReq_mshr_miss_latency::total      4191000                       # number of ReadSharedReq MSHR miss cycles
system.l2.ReadSharedReq_mshr_miss_rate::.cpu.data     0.640000                       # mshr miss rate for ReadSharedReq accesses
system.l2.ReadSharedReq_mshr_miss_rate::total     0.640000                       # mshr miss rate for ReadSharedReq accesses
system.l2.ReadSharedReq_avg_mshr_miss_latency::.cpu.data 130968.750000                       # average ReadSharedReq mshr miss latency
system.l2.ReadSharedReq_avg_mshr_miss_latency::total 130968.750000                       # average ReadSharedReq mshr miss latency
system.l2.power_state.pwrStateResidencyTicks::UNDEFINED     32293000                       # Cumulative time (in ticks) in various power states
system.l2.tags.tagsinuse                   111.151955                       # Cycle average of tags in use
system.l2.tags.total_refs                         412                       # Total number of references to valid blocks.
system.l2.tags.sampled_refs                       208                       # Sample count of references to valid blocks.
system.l2.tags.avg_refs                      1.980769                       # Average number of references to valid blocks.
system.l2.tags.warmup_cycle                    112000                       # Cycle when the warmup percentage was hit.
system.l2.tags.occ_blocks::.cpu.inst        82.160037                       # Average occupied blocks per requestor
system.l2.tags.occ_blocks::.cpu.data        28.991918                       # Average occupied blocks per requestor
system.l2.tags.occ_percent::.cpu.inst        0.020059                       # Average percentage of cache occupancy
system.l2.tags.occ_percent::.cpu.data        0.007078                       # Average percentage of cache occupancy
system.l2.tags.occ_percent::total            0.027137                       # Average percentage of cache occupancy
system.l2.tags.occ_task_id_blocks::1024           208                       # Occupied blocks per task id
system.l2.tags.age_task_id_blocks_1024::0           63                       # Occupied blocks per task id
system.l2.tags.age_task_id_blocks_1024::1          145                       # Occupied blocks per task id
system.l2.tags.occ_task_id_percent::1024     0.050781                       # Percentage of cache occupancy per task id
system.l2.tags.tag_accesses                      3536                       # Number of tag accesses
system.l2.tags.data_accesses                     3536                       # Number of data accesses
system.l2.tags.power_state.pwrStateResidencyTicks::UNDEFINED     32293000                       # Cumulative time (in ticks) in various power states
system.mem_ctrls.avgPriority_.cpu.inst::samples      1256.00                       # Average QoS priority value for accepted requests
system.mem_ctrls.avgPriority_.cpu.data::samples       408.00                       # Average QoS priority value for accepted requests
system.mem_ctrls.priorityMinLatency      0.000000018750                       # per QoS priority minimum request to response latency (s)
system.mem_ctrls.priorityMaxLatency      0.000000594750                       # per QoS priority maximum request to response latency (s)
system.mem_ctrls.numReadWriteTurnArounds            0                       # Number of turnarounds from READ to WRITE
system.mem_ctrls.numWriteReadTurnArounds            0                       # Number of turnarounds from WRITE to READ
system.mem_ctrls.numStayReadState                1861                       # Number of times bus staying in READ state
system.mem_ctrls.numStayWriteState                  0                       # Number of times bus staying in WRITE state
system.mem_ctrls.readReqs                         208                       # Number of read requests accepted
system.mem_ctrls.writeReqs                          0                       # Number of write requests accepted
system.mem_ctrls.readBursts                      1664                       # Number of controller read bursts, including those serviced by the write queue
system.mem_ctrls.writeBursts                        0                       # Number of controller write bursts, including those merged in the write queue
system.mem_ctrls.servicedByWrQ                      0                       # Number of controller read bursts serviced by the write queue
system.mem_ctrls.mergedWrBursts                     0                       # Number of controller write bursts merged with an existing one
system.mem_ctrls.neitherReadNorWriteReqs            0                       # Number of requests that are neither read nor write
system.mem_ctrls.avgRdQLen                       8.76                       # Average read queue length when enqueuing
system.mem_ctrls.avgWrQLen                       0.00                       # Average write queue length when enqueuing
system.mem_ctrls.numRdRetry                         0                       # Number of times read queue was full causing retry
system.mem_ctrls.numWrRetry                         0                       # Number of times write queue was full causing retry
system.mem_ctrls.readPktSize::0                     0                       # Read request sizes (log2)
system.mem_ctrls.readPktSize::1                     0                       # Read request sizes (log2)
system.mem_ctrls.readPktSize::2                     0                       # Read request sizes (log2)
system.mem_ctrls.readPktSize::3                     0                       # Read request sizes (log2)
system.mem_ctrls.readPktSize::4                     0                       # Read request sizes (log2)
system.mem_ctrls.readPktSize::5                     0                       # Read request sizes (log2)
system.mem_ctrls.readPktSize::6                  1664                       # Read request sizes (log2)
system.mem_ctrls.readPktSize::7                     0                       # Read request sizes (log2)
system.mem_ctrls.readPktSize::8                     0                       # Read request sizes (log2)
system.mem_ctrls.readPktSize::9                     0                       # Read request sizes (log2)
system.mem_ctrls.writePktSize::0                    0                       # Write request sizes (log2)
system.mem_ctrls.writePktSize::1                    0                       # Write request sizes (log2)
system.mem_ctrls.writePktSize::2                    0                       # Write request sizes (log2)
system.mem_ctrls.writePktSize::3                    0                       # Write request sizes (log2)
system.mem_ctrls.writePktSize::4                    0                       # Write request sizes (log2)
system.mem_ctrls.writePktSize::5                    0                       # Write request sizes (log2)
system.mem_ctrls.writePktSize::6                    0                       # Write request sizes (log2)
system.mem_ctrls.writePktSize::7                    0                       # Write request sizes (log2)
system.mem_ctrls.writePktSize::8                    0                       # Write request sizes (log2)
system.mem_ctrls.writePktSize::9                    0                       # Write request sizes (log2)
system.mem_ctrls.rdQLenPdf::0                     185                       # What read queue length does an incoming req see
system.mem_ctrls.rdQLenPdf::1                     185                       # What read queue length does an incoming req see
system.mem_ctrls.rdQLenPdf::2                     185                       # What read queue length does an incoming req see
system.mem_ctrls.rdQLenPdf::3                     185                       # What read queue length does an incoming req see
system.mem_ctrls.rdQLenPdf::4                     187                       # What read queue length does an incoming req see
system.mem_ctrls.rdQLenPdf::5                     187                       # What read queue length does an incoming req see
system.mem_ctrls.rdQLenPdf::6                     189                       # What read queue length does an incoming req see
system.mem_ctrls.rdQLenPdf::7                     190                       # What read queue length does an incoming req see
system.mem_ctrls.rdQLenPdf::8                      21                       # What read queue length does an incoming req see
system.mem_ctrls.rdQLenPdf::9                      21                       # What read queue length does an incoming req see
system.mem_ctrls.rdQLenPdf::10                     21                       # What read queue length does an incoming req see
system.mem_ctrls.rdQLenPdf::11                     21                       # What read queue length does an incoming req see
system.mem_ctrls.rdQLenPdf::12                     19                       # What read queue length does an incoming req see
system.mem_ctrls.rdQLenPdf::13                     19                       # What read queue length does an incoming req see
system.mem_ctrls.rdQLenPdf::14                     17                       # What read queue length does an incoming req see
[...]
system.mem_ctrls.dram.bytes_read::total        106496                       # Number of bytes read from this memory
system.mem_ctrls.dram.bytes_inst_read::.cpu.inst        80384                       # Number of instructions bytes read from this memory
system.mem_ctrls.dram.bytes_inst_read::total        80384                       # Number of instructions bytes read from this memory
system.mem_ctrls.dram.num_reads::.cpu.inst          157                       # Number of read requests responded to by this memory
system.mem_ctrls.dram.num_reads::.cpu.data           51                       # Number of read requests responded to by this memory
system.mem_ctrls.dram.num_reads::total            208                       # Number of read requests responded to by this memory
system.mem_ctrls.dram.bw_read::.cpu.inst   2489208188                       # Total read bandwidth from this memory (bytes/s)
system.mem_ctrls.dram.bw_read::.cpu.data    808596290                       # Total read bandwidth from this memory (bytes/s)
system.mem_ctrls.dram.bw_read::total       3297804478                       # Total read bandwidth from this memory (bytes/s)
system.mem_ctrls.dram.bw_inst_read::.cpu.inst   2489208188                       # Instruction read bandwidth from this memory (bytes/s)
system.mem_ctrls.dram.bw_inst_read::total   2489208188                       # Instruction read bandwidth from this memory (bytes/s)
system.mem_ctrls.dram.bw_total::.cpu.inst   2489208188                       # Total bandwidth to/from this memory (bytes/s)
system.mem_ctrls.dram.bw_total::.cpu.data    808596290                       # Total bandwidth to/from this memory (bytes/s)
system.mem_ctrls.dram.bw_total::total      3297804478                       # Total bandwidth to/from this memory (bytes/s)
system.mem_ctrls.dram.readBursts                 1664                       # Number of DRAM read bursts
system.mem_ctrls.dram.writeBursts                   0                       # Number of DRAM write bursts
system.mem_ctrls.dram.perBankRdBursts::0          144                       # Per bank write bursts
system.mem_ctrls.dram.perBankRdBursts::1          152                       # Per bank write bursts
system.mem_ctrls.dram.perBankRdBursts::2           48                       # Per bank write bursts
system.mem_ctrls.dram.perBankRdBursts::3           40                       # Per bank write bursts
system.mem_ctrls.dram.perBankRdBursts::4           96                       # Per bank write bursts
system.mem_ctrls.dram.perBankRdBursts::5          120                       # Per bank write bursts
system.mem_ctrls.dram.perBankRdBursts::6           40                       # Per bank write bursts
system.mem_ctrls.dram.perBankRdBursts::7           72                       # Per bank write bursts
system.mem_ctrls.dram.perBankRdBursts::8          128                       # Per bank write bursts
system.mem_ctrls.dram.perBankRdBursts::9          232                       # Per bank write bursts
system.mem_ctrls.dram.perBankRdBursts::10          160                       # Per bank write bursts
system.mem_ctrls.dram.perBankRdBursts::11          144                       # Per bank write bursts
system.mem_ctrls.dram.perBankRdBursts::12           96                       # Per bank write bursts
system.mem_ctrls.dram.perBankRdBursts::13           80                       # Per bank write bursts
system.mem_ctrls.dram.perBankRdBursts::14           32                       # Per bank write bursts
system.mem_ctrls.dram.perBankRdBursts::15           80                       # Per bank write bursts
system.mem_ctrls.dram.perBankWrBursts::0            0                       # Per bank write bursts
system.mem_ctrls.dram.perBankWrBursts::1            0                       # Per bank write bursts
system.mem_ctrls.dram.perBankWrBursts::2            0                       # Per bank write bursts
system.mem_ctrls.dram.perBankWrBursts::3            0                       # Per bank write bursts
system.mem_ctrls.dram.perBankWrBursts::4            0                       # Per bank write bursts
system.mem_ctrls.dram.perBankWrBursts::5            0                       # Per bank write bursts
system.mem_ctrls.dram.perBankWrBursts::6            0                       # Per bank write bursts
system.mem_ctrls.dram.perBankWrBursts::7            0                       # Per bank write bursts
system.mem_ctrls.dram.perBankWrBursts::8            0                       # Per bank write bursts
system.mem_ctrls.dram.perBankWrBursts::9            0                       # Per bank write bursts
system.mem_ctrls.dram.perBankWrBursts::10            0                       # Per bank write bursts
system.mem_ctrls.dram.perBankWrBursts::11            0                       # Per bank write bursts
system.mem_ctrls.dram.perBankWrBursts::12            0                       # Per bank write bursts
system.mem_ctrls.dram.perBankWrBursts::13            0                       # Per bank write bursts
system.mem_ctrls.dram.perBankWrBursts::14            0                       # Per bank write bursts
system.mem_ctrls.dram.perBankWrBursts::15            0                       # Per bank write bursts
system.mem_ctrls.dram.totQLat                59516000                       # Total ticks spent queuing
system.mem_ctrls.dram.totBusLat               8320000                       # Total ticks spent in databus transfers
system.mem_ctrls.dram.totMemAccLat           90716000                       # Total ticks spent from burst creation until serviced by the DRAM
system.mem_ctrls.dram.avgQLat                35766.83                       # Average queueing delay per DRAM burst
system.mem_ctrls.dram.avgBusLat               5000.00                       # Average bus latency per DRAM burst
system.mem_ctrls.dram.avgMemAccLat           54516.83                       # Average memory access latency per DRAM burst
system.mem_ctrls.dram.readRowHits                1533                       # Number of row buffer hits during reads
system.mem_ctrls.dram.writeRowHits                  0                       # Number of row buffer hits during writes
system.mem_ctrls.dram.readRowHitRate            92.13                       # Row buffer hit rate for reads
system.mem_ctrls.dram.writeRowHitRate             nan                       # Row buffer hit rate for writes
system.mem_ctrls.dram.bytesPerActivate::samples          130                       # Bytes accessed per row activation
system.mem_ctrls.dram.bytesPerActivate::mean   815.261538                       # Bytes accessed per row activation
system.mem_ctrls.dram.bytesPerActivate::gmean   771.920088                       # Bytes accessed per row activation
system.mem_ctrls.dram.bytesPerActivate::stdev   252.572886                       # Bytes accessed per row activation
system.mem_ctrls.dram.bytesPerActivate::512-639           53     40.77%     40.77% # Bytes accessed per row activation
system.mem_ctrls.dram.bytesPerActivate::1024-1151           77     59.23%    100.00% # Bytes accessed per row activation
system.mem_ctrls.dram.bytesPerActivate::total          130                       # Bytes accessed per row activation
system.mem_ctrls.dram.bytesRead                106496                       # Total number of bytes read from DRAM
system.mem_ctrls.dram.bytesWritten                  0                       # Total number of bytes written to DRAM
system.mem_ctrls.dram.avgRdBW             3297.804478                       # Average DRAM read bandwidth in MiBytes/s
system.mem_ctrls.dram.avgWrBW                       0                       # Average DRAM write bandwidth in MiBytes/s
system.mem_ctrls.dram.peakBW                 12800.00                       # Theoretical peak bandwidth in MiByte/s
system.mem_ctrls.dram.busUtil                   25.76                       # Data bus utilization in percentage
system.mem_ctrls.dram.busUtilRead               25.76                       # Data bus utilization in percentage for reads
system.mem_ctrls.dram.busUtilWrite               0.00                       # Data bus utilization in percentage for writes
system.mem_ctrls.dram.pageHitRate               92.13                       # Row buffer hit rate, read and write combined
system.mem_ctrls.dram.power_state.pwrStateResidencyTicks::UNDEFINED     32293000                       # Cumulative time (in ticks) in various power states
system.mem_ctrls.dram.rank0.actEnergy          421260                       # Energy for activate commands per rank (pJ)
system.mem_ctrls.dram.rank0.preEnergy          223905                       # Energy for precharge commands per rank (pJ)
system.mem_ctrls.dram.rank0.readEnergy        5083680                       # Energy for read commands per rank (pJ)
system.mem_ctrls.dram.rank0.writeEnergy             0                       # Energy for write commands per rank (pJ)
system.mem_ctrls.dram.rank0.refreshEnergy 2458560.000000                       # Energy for refresh commands per rank (pJ)
system.mem_ctrls.dram.rank0.actBackEnergy     11214180                       # Energy for active background per rank (pJ)
system.mem_ctrls.dram.rank0.preBackEnergy      2957280                       # Energy for precharge background per rank (pJ)
system.mem_ctrls.dram.rank0.actPowerDownEnergy            0                       # Energy for active power-down per rank (pJ)
system.mem_ctrls.dram.rank0.prePowerDownEnergy            0                       # Energy for precharge power-down per rank (pJ)
system.mem_ctrls.dram.rank0.selfRefreshEnergy            0                       # Energy for self refresh per rank (pJ)
system.mem_ctrls.dram.rank0.totalEnergy      22358865                       # Total energy per rank (pJ)
system.mem_ctrls.dram.rank0.averagePower   692.374973                       # Core power per rank (mW)
system.mem_ctrls.dram.rank0.totalIdleTime            0                       # Total Idle time Per DRAM Rank
system.mem_ctrls.dram.rank0.pwrStateTime::IDLE      7534500                       # Time in different power states
system.mem_ctrls.dram.rank0.pwrStateTime::REF      1040000                       # Time in different power states
system.mem_ctrls.dram.rank0.pwrStateTime::SREF            0                       # Time in different power states
system.mem_ctrls.dram.rank0.pwrStateTime::PRE_PDN            0                       # Time in different power states
system.mem_ctrls.dram.rank0.pwrStateTime::ACT     23718500                       # Time in different power states
system.mem_ctrls.dram.rank0.pwrStateTime::ACT_PDN            0                       # Time in different power states
system.mem_ctrls.dram.rank1.actEnergy          514080                       # Energy for activate commands per rank (pJ)
system.mem_ctrls.dram.rank1.preEnergy          269445                       # Energy for precharge commands per rank (pJ)
system.mem_ctrls.dram.rank1.readEnergy        6797280                       # Energy for read commands per rank (pJ)
system.mem_ctrls.dram.rank1.writeEnergy             0                       # Energy for write commands per rank (pJ)
system.mem_ctrls.dram.rank1.refreshEnergy 2458560.000000                       # Energy for refresh commands per rank (pJ)
system.mem_ctrls.dram.rank1.actBackEnergy     13831620                       # Energy for active background per rank (pJ)
system.mem_ctrls.dram.rank1.preBackEnergy       753120                       # Energy for precharge background per rank (pJ)
system.mem_ctrls.dram.rank1.actPowerDownEnergy            0                       # Energy for active power-down per rank (pJ)
system.mem_ctrls.dram.rank1.prePowerDownEnergy            0                       # Energy for precharge power-down per rank (pJ)
system.mem_ctrls.dram.rank1.selfRefreshEnergy            0                       # Energy for self refresh per rank (pJ)
system.mem_ctrls.dram.rank1.totalEnergy      24624105                       # Total energy per rank (pJ)
system.mem_ctrls.dram.rank1.averagePower   762.521444                       # Core power per rank (mW)
system.mem_ctrls.dram.rank1.totalIdleTime            0                       # Total Idle time Per DRAM Rank
system.mem_ctrls.dram.rank1.pwrStateTime::IDLE      1713250                       # Time in different power states
system.mem_ctrls.dram.rank1.pwrStateTime::REF      1040000                       # Time in different power states
system.mem_ctrls.dram.rank1.pwrStateTime::SREF            0                       # Time in different power states
system.mem_ctrls.dram.rank1.pwrStateTime::PRE_PDN            0                       # Time in different power states
system.mem_ctrls.dram.rank1.pwrStateTime::ACT     29539750                       # Time in different power states
system.mem_ctrls.dram.rank1.pwrStateTime::ACT_PDN            0                       # Time in different power states
system.mem_ctrls.power_state.pwrStateResidencyTicks::UNDEFINED     32293000                       # Cumulative time (in ticks) in various power states
system.membus.trans_dist::ReadResp                189                       # Transaction distribution
system.membus.trans_dist::ReadExReq                19                       # Transaction distribution
system.membus.trans_dist::ReadExResp               19                       # Transaction distribution
system.membus.trans_dist::ReadSharedReq           189                       # Transaction distribution
system.membus.pkt_count_system.l2.mem_side_port::system.mem_ctrls.port          416                       # Packet count per connected requestor and responder (bytes)
system.membus.pkt_count::total                    416                       # Packet count per connected requestor and responder (bytes)
system.membus.pkt_size_system.l2.mem_side_port::system.mem_ctrls.port       106496                       # Cumulative packet size per connected requestor and responder (bytes)
system.membus.pkt_size::total                  106496                       # Cumulative packet size per connected requestor and responder (bytes)
system.membus.snoops                                0                       # Total snoops (count)
system.membus.snoopTraffic                          0                       # Total snoop traffic (bytes)
system.membus.snoop_fanout::samples               208                       # Request fanout histogram
system.membus.snoop_fanout::mean                    0                       # Request fanout histogram
system.membus.snoop_fanout::stdev                   0                       # Request fanout histogram
system.membus.snoop_fanout::underflows              0      0.00%      0.00% # Request fanout histogram
system.membus.snoop_fanout::0                     208    100.00%    100.00% # Request fanout histogram
system.membus.snoop_fanout::1                       0      0.00%    100.00% # Request fanout histogram
system.membus.snoop_fanout::overflows               0      0.00%    100.00% # Request fanout histogram
system.membus.snoop_fanout::min_value               0                       # Request fanout histogram
system.membus.snoop_fanout::max_value               0                       # Request fanout histogram
system.membus.snoop_fanout::total                 208                       # Request fanout histogram
system.membus.power_state.pwrStateResidencyTicks::UNDEFINED     32293000                       # Cumulative time (in ticks) in various power states
system.membus.reqLayer0.occupancy              260000                       # Layer occupancy (ticks)
system.membus.reqLayer0.utilization               0.8                       # Layer utilization (%)
system.membus.respLayer1.occupancy            6954500                       # Layer occupancy (ticks)
system.membus.respLayer1.utilization             21.5                       # Layer utilization (%)
system.tol2bus.trans_dist::ReadResp               263                       # Transaction distribution
system.tol2bus.trans_dist::WritebackDirty            2                       # Transaction distribution
system.tol2bus.trans_dist::WritebackClean          150                       # Transaction distribution
system.tol2bus.trans_dist::CleanEvict               5                       # Transaction distribution
system.tol2bus.trans_dist::ReadExReq               20                       # Transaction distribution
system.tol2bus.trans_dist::ReadExResp              20                       # Transaction distribution
system.tol2bus.trans_dist::ReadCleanReq           213                       # Transaction distribution
system.tol2bus.trans_dist::ReadSharedReq           50                       # Transaction distribution
system.tol2bus.pkt_count_system.cpu.icache.mem_side_port::system.l2.cpu_side_port          576                       # Packet count per connected requestor and responder (bytes)
system.tol2bus.pkt_count_system.cpu.dcache.mem_side_port::system.l2.cpu_side_port          147                       # Packet count per connected requestor and responder (bytes)
system.tol2bus.pkt_count::total                   723                       # Packet count per connected requestor and responder (bytes)
system.tol2bus.pkt_size_system.cpu.icache.mem_side_port::system.l2.cpu_side_port       185856                       # Cumulative packet size per connected requestor and responder (bytes)
system.tol2bus.pkt_size_system.cpu.dcache.mem_side_port::system.l2.cpu_side_port        36864                       # Cumulative packet size per connected requestor and responder (bytes)
system.tol2bus.pkt_size::total                 222720                       # Cumulative packet size per connected requestor and responder (bytes)
system.tol2bus.snoops                               0                       # Total snoops (count)
system.tol2bus.snoopTraffic                         0                       # Total snoop traffic (bytes)
system.tol2bus.snoop_fanout::samples              283                       # Request fanout histogram
system.tol2bus.snoop_fanout::mean            0.098940                       # Request fanout histogram
system.tol2bus.snoop_fanout::stdev           0.299110                       # Request fanout histogram
system.tol2bus.snoop_fanout::underflows             0      0.00%      0.00% # Request fanout histogram
system.tol2bus.snoop_fanout::0                    255     90.11%     90.11% # Request fanout histogram
system.tol2bus.snoop_fanout::1                     28      9.89%    100.00% # Request fanout histogram
system.tol2bus.snoop_fanout::2                      0      0.00%    100.00% # Request fanout histogram
system.tol2bus.snoop_fanout::overflows              0      0.00%    100.00% # Request fanout histogram
system.tol2bus.snoop_fanout::min_value              0                       # Request fanout histogram
system.tol2bus.snoop_fanout::max_value              1                       # Request fanout histogram
system.tol2bus.snoop_fanout::total                283                       # Request fanout histogram
system.tol2bus.power_state.pwrStateResidencyTicks::UNDEFINED     32293000                       # Cumulative time (in ticks) in various power states
system.tol2bus.reqLayer0.occupancy            1436000                       # Layer occupancy (ticks)
system.tol2bus.reqLayer0.utilization              4.4                       # Layer utilization (%)
system.tol2bus.respLayer0.occupancy           1810500                       # Layer occupancy (ticks)
system.tol2bus.respLayer0.utilization             5.6                       # Layer utilization (%)
system.tol2bus.respLayer1.occupancy            596996                       # Layer occupancy (ticks)
system.tol2bus.respLayer1.utilization             1.8                       # Layer utilization (%)
system.voltage_domain.voltage                       1                       # Voltage in Volts

---------- End Simulation Statistics   ----------
