
---------- Begin Simulation Statistics ----------
final_tick                                   66609000                       # Number of ticks from beginning of simulation (restored from checkpoints and never reset)
host_inst_rate                                 109953                       # Simulator instruction rate (inst/s)
host_mem_usage                                 710644                       # Number of bytes of host memory used
host_op_rate                                   122748                       # Simulator op (including micro ops) rate (op/s)
host_seconds                                     0.14                       # Real time elapsed on the host
host_tick_rate                              463565050                       # Simulator tick rate (ticks/s)
sim_freq                                 1000000000000                       # Frequency of simulated ticks
sim_insts                                       15784                       # Number of instructions simulated
sim_ops                                         17635                       # Number of ops (including micro ops) simulated
sim_seconds                                  0.000067                       # Number of seconds simulated
sim_ticks                                    66609000                       # Number of ticks simulated
system.cpu.committedInsts                       15784                       # Number of instructions committed
system.cpu.committedOps                         17635                       # Number of ops (including micro ops) committed
system.cpu.cpi                               4.220033                       # CPI: cycles per instruction
system.cpu.discardedOps                          2829                       # Number of ops (including micro ops) which were discarded before commit
system.cpu.idleCycles                           41044                       # Total number of cycles that the object has spent stopped
system.cpu.ipc                               0.236965                       # IPC: instructions per cycle
system.cpu.numCycles                            66609                       # number of cpu cycles simulated
system.cpu.numFetchSuspends                         0                       # Number of times Execute suspended instruction fetching
system.cpu.numWorkItemsCompleted                    0                       # number of work items this cpu completed
system.cpu.numWorkItemsStarted                      0                       # number of work items this cpu started
system.cpu.op_class_0::No_OpClass                   0      0.00%      0.00% # Class of committed instruction
system.cpu.op_class_0::IntAlu                   12205     69.21%     69.21% # Class of committed instruction
system.cpu.op_class_0::IntMult                    135      0.77%     69.97% # Class of committed instruction
system.cpu.op_class_0::IntDiv                       0      0.00%     69.97% # Class of committed instruction
system.cpu.op_class_0::FloatAdd                     0      0.00%     69.97% # Class of committed instruction
system.cpu.op_class_0::FloatCmp                     0      0.00%     69.97% # Class of committed instruction
system.cpu.op_class_0::FloatCvt                     0      0.00%     69.97% # Class of committed instruction
system.cpu.op_class_0::FloatMult                    0      0.00%     69.97% # Class of committed instruction
system.cpu.op_class_0::FloatMultAcc                 0      0.00%     69.97% # Class of committed instruction
system.cpu.op_class_0::FloatDiv                     0      0.00%     69.97% # Class of committed instruction
system.cpu.op_class_0::FloatMisc                    0      0.00%     69.97% # Class of committed instruction
system.cpu.op_class_0::FloatSqrt                    0      0.00%     69.97% # Class of committed instruction
system.cpu.op_class_0::SimdAdd                      0      0.00%     69.97% # Class of committed instruction
system.cpu.op_class_0::SimdAddAcc                   0      0.00%     69.97% # Class of committed instruction
system.cpu.op_class_0::SimdAlu                      0      0.00%     69.97% # Class of committed instruction
system.cpu.op_class_0::SimdCmp                      0      0.00%     69.97% # Class of committed instruction
system.cpu.op_class_0::SimdCvt                      0      0.00%     69.97% # Class of committed instruction
system.cpu.op_class_0::SimdMisc                     0      0.00%     69.97% # Class of committed instruction
system.cpu.op_class_0::SimdMult                     0      0.00%     69.97% # Class of committed instruction
system.cpu.op_class_0::SimdMultAcc                  0      0.00%     69.97% # Class of committed instruction
system.cpu.op_class_0::SimdShift                    0      0.00%     69.97% # Class of committed instruction
system.cpu.op_class_0::SimdShiftAcc                 0      0.00%     69.97% # Class of committed instruction
system.cpu.op_class_0::SimdDiv                      0      0.00%     69.97% # Class of committed instruction
system.cpu.op_class_0::SimdSqrt                     0      0.00%     69.97% # Class of committed instruction
system.cpu.op_class_0::SimdFloatAdd                 0      0.00%     69.97% # Class of committed instruction
system.cpu.op_class_0::SimdFloatAlu                 0      0.00%     69.97% # Class of committed instruction
system.cpu.op_class_0::SimdFloatCmp                 0      0.00%     69.97% # Class of committed instruction
system.cpu.op_class_0::SimdFloatCvt                 2      0.01%     69.99% # Class of committed instruction
system.cpu.op_class_0::SimdFloatDiv                 0      0.00%     69.99% # Class of committed instruction
system.cpu.op_class_0::SimdFloatMisc                7      0.04%     70.03% # Class of committed instruction
system.cpu.op_class_0::SimdFloatMult                0      0.00%     70.03% # Class of committed instruction
system.cpu.op_class_0::SimdFloatMultAcc             0      0.00%     70.03% # Class of committed instruction
system.cpu.op_class_0::SimdFloatSqrt                0      0.00%     70.03% # Class of committed instruction
system.cpu.op_class_0::SimdReduceAdd                0      0.00%     70.03% # Class of committed instruction
system.cpu.op_class_0::SimdReduceAlu                0      0.00%     70.03% # Class of committed instruction
system.cpu.op_class_0::SimdReduceCmp                0      0.00%     70.03% # Class of committed instruction
system.cpu.op_class_0::SimdFloatReduceAdd            0      0.00%     70.03% # Class of committed instruction
system.cpu.op_class_0::SimdFloatReduceCmp            0      0.00%     70.03% # Class of committed instruction
system.cpu.op_class_0::SimdAes                      0      0.00%     70.03% # Class of committed instruction
system.cpu.op_class_0::SimdAesMix                   0      0.00%     70.03% # Class of committed instruction
system.cpu.op_class_0::SimdSha1Hash                 0      0.00%     70.03% # Class of committed instruction
system.cpu.op_class_0::SimdSha1Hash2                0      0.00%     70.03% # Class of committed instruction
system.cpu.op_class_0::SimdSha256Hash               0      0.00%     70.03% # Class of committed instruction
system.cpu.op_class_0::SimdSha256Hash2              0      0.00%     70.03% # Class of committed instruction
system.cpu.op_class_0::SimdShaSigma2                0      0.00%     70.03% # Class of committed instruction
system.cpu.op_class_0::SimdShaSigma3                0      0.00%     70.03% # Class of committed instruction
system.cpu.op_class_0::SimdPredAlu                  0      0.00%     70.03% # Class of committed instruction
system.cpu.op_class_0::MemRead                   3136     17.78%     87.81% # Class of committed instruction
system.cpu.op_class_0::MemWrite                  2150     12.19%    100.00% # Class of committed instruction
system.cpu.op_class_0::FloatMemRead                 0      0.00%    100.00% # Class of committed instruction
system.cpu.op_class_0::FloatMemWrite                0      0.00%    100.00% # Class of committed instruction
system.cpu.op_class_0::IprAccess                    0      0.00%    100.00% # Class of committed instruction
system.cpu.op_class_0::InstPrefetch                 0      0.00%    100.00% # Class of committed instruction
system.cpu.op_class_0::total                    17635                       # Class of committed instruction
system.cpu.tickCycles                           25565                       # Number of cycles that the object actually ticked
system.cpu.workload.numSyscalls                    13                       # Number of system calls
system.membus.snoop_filter.hit_multi_requests            0                       # Number of requests hitting in the snoop filter with multiple (>1) holders of the requested data.
system.membus.snoop_filter.hit_multi_snoops            0                       # Number of snoops hitting in the snoop filter with multiple (>1) holders of the requested data.
system.membus.snoop_filter.hit_single_requests            0                       # Number of requests hitting in the snoop filter with a single holder of the requested data.
system.membus.snoop_filter.hit_single_snoops            0                       # Number of snoops hitting in the snoop filter with a single holder of the requested data.
system.membus.snoop_filter.tot_requests           481                       # Total number of requests made to the snoop filter.
system.membus.snoop_filter.tot_snoops               0                       # Total number of snoops made to the snoop filter.
system.tol2bus.snoop_filter.hit_multi_requests            8                       # Number of requests hitting in the snoop filter with multiple (>1) holders of the requested data.
system.tol2bus.snoop_filter.hit_multi_snoops            0                       # Number of snoops hitting in the snoop filter with multiple (>1) holders of the requested data.
system.tol2bus.snoop_filter.hit_single_requests           55                       # Number of requests hitting in the snoop filter with a single holder of the requested data.
system.tol2bus.snoop_filter.hit_single_snoops            0                       # Number of snoops hitting in the snoop filter with a single holder of the requested data.
system.tol2bus.snoop_filter.tot_requests          196                       # Total number of requests made to the snoop filter.
system.tol2bus.snoop_filter.tot_snoops              0                       # Total number of snoops made to the snoop filter.
system.clk_domain.clock                          1000                       # Clock period in ticks
system.cpu.branchPred.lookups                    4936                       # Number of BP lookups
system.cpu.branchPred.condPredicted              3239                       # Number of conditional branches predicted
system.cpu.branchPred.condIncorrect               869                       # Number of conditional branches incorrect
system.cpu.branchPred.BTBLookups                 2610                       # Number of BTB lookups
system.cpu.branchPred.BTBHits                    1116                       # Number of BTB hits
system.cpu.branchPred.BTBHitPct             42.758621                       # BTB Hit Percentage
system.cpu.branchPred.RASUsed                     407                       # Number of times the RAS was used to get a target.
system.cpu.branchPred.RASIncorrect                  1                       # Number of incorrect RAS predictions.
system.cpu.branchPred.indirectLookups             154                       # Number of indirect predictor lookups.
system.cpu.branchPred.indirectHits                 13                       # Number of indirect target hits.
system.cpu.branchPred.indirectMisses              141                       # Number of indirect misses.
system.cpu.branchPred.indirectMispredicted           69                       # Number of mispredicted indirect branches.
system.cpu.dcache.demand_hits::.cpu.data         5434                       # number of demand (read+write) hits
system.cpu.dcache.demand_hits::total             5434                       # number of demand (read+write) hits
system.cpu.dcache.overall_hits::.cpu.data         5502                       # number of overall hits
system.cpu.dcache.overall_hits::total            5502                       # number of overall hits
system.cpu.dcache.demand_misses::.cpu.data           62                       # number of demand (read+write) misses
system.cpu.dcache.demand_misses::total             62                       # number of demand (read+write) misses
system.cpu.dcache.overall_misses::.cpu.data           64                       # number of overall misses
system.cpu.dcache.overall_misses::total            64                       # number of overall misses
system.cpu.dcache.demand_miss_latency::.cpu.data     17329000                       # number of demand (read+write) miss cycles
system.cpu.dcache.demand_miss_latency::total     17329000                       # number of demand (read+write) miss cycles
system.cpu.dcache.overall_miss_latency::.cpu.data     17329000                       # number of overall miss cycles
system.cpu.dcache.overall_miss_latency::total     17329000                       # number of overall miss cycles
system.cpu.dcache.demand_accesses::.cpu.data         5496                       # number of demand (read+write) accesses
system.cpu.dcache.demand_accesses::total         5496                       # number of demand (read+write) accesses
system.cpu.dcache.overall_accesses::.cpu.data         5566                       # number of overall (read+write) accesses
system.cpu.dcache.overall_accesses::total         5566                       # number of overall (read+write) accesses
system.cpu.dcache.demand_miss_rate::.cpu.data     0.011281                       # miss rate for demand accesses
system.cpu.dcache.demand_miss_rate::total     0.011281                       # miss rate for demand accesses
system.cpu.dcache.overall_miss_rate::.cpu.data     0.011498                       # miss rate for overall accesses
system.cpu.dcache.overall_miss_rate::total     0.011498                       # miss rate for overall accesses
system.cpu.dcache.demand_avg_miss_latency::.cpu.data       279500                       # average overall miss latency
system.cpu.dcache.demand_avg_miss_latency::total       279500                       # average overall miss latency
system.cpu.dcache.overall_avg_miss_latency::.cpu.data 270765.625000                       # average overall miss latency
system.cpu.dcache.overall_avg_miss_latency::total 270765.625000                       # average overall miss latency
system.cpu.dcache.blocked_cycles::no_mshrs            0                       # number of cycles access was blocked
system.cpu.dcache.blocked_cycles::no_targets            0                       # number of cycles access was blocked
system.cpu.dcache.blocked::no_mshrs                 0                       # number of cycles access was blocked
system.cpu.dcache.blocked::no_targets               0                       # number of cycles access was blocked
system.cpu.dcache.avg_blocked_cycles::no_mshrs          nan                       # average number of cycles each access was blocked
system.cpu.dcache.avg_blocked_cycles::no_targets          nan                       # average number of cycles each access was blocked
system.cpu.dcache.demand_mshr_hits::.cpu.data           10                       # number of demand (read+write) MSHR hits
system.cpu.dcache.demand_mshr_hits::total           10                       # number of demand (read+write) MSHR hits
system.cpu.dcache.overall_mshr_hits::.cpu.data           10                       # number of overall MSHR hits
system.cpu.dcache.overall_mshr_hits::total           10                       # number of overall MSHR hits
system.cpu.dcache.demand_mshr_misses::.cpu.data           52                       # number of demand (read+write) MSHR misses
system.cpu.dcache.demand_mshr_misses::total           52                       # number of demand (read+write) MSHR misses
system.cpu.dcache.overall_mshr_misses::.cpu.data           53                       # number of overall MSHR misses
system.cpu.dcache.overall_mshr_misses::total           53                       # number of overall MSHR misses
system.cpu.dcache.demand_mshr_miss_latency::.cpu.data     12890000                       # number of demand (read+write) MSHR miss cycles
system.cpu.dcache.demand_mshr_miss_latency::total     12890000                       # number of demand (read+write) MSHR miss cycles
system.cpu.dcache.overall_mshr_miss_latency::.cpu.data     13397000                       # number of overall MSHR miss cycles
system.cpu.dcache.overall_mshr_miss_latency::total     13397000                       # number of overall MSHR miss cycles
system.cpu.dcache.demand_mshr_miss_rate::.cpu.data     0.009461                       # mshr miss rate for demand accesses
system.cpu.dcache.demand_mshr_miss_rate::total     0.009461                       # mshr miss rate for demand accesses
system.cpu.dcache.overall_mshr_miss_rate::.cpu.data     0.009522                       # mshr miss rate for overall accesses
system.cpu.dcache.overall_mshr_miss_rate::total     0.009522                       # mshr miss rate for overall accesses
system.cpu.dcache.demand_avg_mshr_miss_latency::.cpu.data 247884.615385                       # average overall mshr miss latency
system.cpu.dcache.demand_avg_mshr_miss_latency::total 247884.615385                       # average overall mshr miss latency
system.cpu.dcache.overall_avg_mshr_miss_latency::.cpu.data 252773.584906                       # average overall mshr miss latency
system.cpu.dcache.overall_avg_mshr_miss_latency::total 252773.584906                       # average overall mshr miss latency
system.cpu.dcache.replacements                      1                       # number of replacements
system.cpu.dcache.ReadReq_hits::.cpu.data         3384                       # number of ReadReq hits
system.cpu.dcache.ReadReq_hits::total            3384                       # number of ReadReq hits
system.cpu.dcache.ReadReq_misses::.cpu.data           43                       # number of ReadReq misses
system.cpu.dcache.ReadReq_misses::total            43                       # number of ReadReq misses
system.cpu.dcache.ReadReq_miss_latency::.cpu.data      9769000                       # number of ReadReq miss cycles
system.cpu.dcache.ReadReq_miss_latency::total      9769000                       # number of ReadReq miss cycles
system.cpu.dcache.ReadReq_accesses::.cpu.data         3427                       # number of ReadReq accesses(hits+misses)
system.cpu.dcache.ReadReq_accesses::total         3427                       # number of ReadReq accesses(hits+misses)
system.cpu.dcache.ReadReq_miss_rate::.cpu.data     0.012547                       # miss rate for ReadReq accesses
system.cpu.dcache.ReadReq_miss_rate::total     0.012547                       # miss rate for ReadReq accesses
system.cpu.dcache.ReadReq_avg_miss_latency::.cpu.data 227186.046512                       # average ReadReq miss latency
system.cpu.dcache.ReadReq_avg_miss_latency::total 227186.046512                       # average ReadReq miss latency
system.cpu.dcache.ReadReq_mshr_hits::.cpu.data            3                       # number of ReadReq MSHR hits
system.cpu.dcache.ReadReq_mshr_hits::total            3                       # number of ReadReq MSHR hits
system.cpu.dcache.ReadReq_mshr_misses::.cpu.data           40                       # number of ReadReq MSHR misses
system.cpu.dcache.ReadReq_mshr_misses::total           40                       # number of ReadReq MSHR misses
system.cpu.dcache.ReadReq_mshr_miss_latency::.cpu.data      8293000                       # number of ReadReq MSHR miss cycles
system.cpu.dcache.ReadReq_mshr_miss_latency::total      8293000                       # number of ReadReq MSHR miss cycles
system.cpu.dcache.ReadReq_mshr_miss_rate::.cpu.data     0.011672                       # mshr miss rate for ReadReq accesses
system.cpu.dcache.ReadReq_mshr_miss_rate::total     0.011672                       # mshr miss rate for ReadReq accesses
system.cpu.dcache.ReadReq_avg_mshr_miss_latency::.cpu.data       207325                       # average ReadReq mshr miss latency
system.cpu.dcache.ReadReq_avg_mshr_miss_latency::total       207325                       # average ReadReq mshr miss latency
system.cpu.dcache.WriteReq_hits::.cpu.data         2050                       # number of WriteReq hits
system.cpu.dcache.WriteReq_hits::total           2050                       # number of WriteReq hits
system.cpu.dcache.WriteReq_misses::.cpu.data           19                       # number of WriteReq misses
system.cpu.dcache.WriteReq_misses::total           19                       # number of WriteReq misses
system.cpu.dcache.WriteReq_miss_latency::.cpu.data      7560000                       # number of WriteReq miss cycles
system.cpu.dcache.WriteReq_miss_latency::total      7560000                       # number of WriteReq miss cycles
system.cpu.dcache.WriteReq_accesses::.cpu.data         2069                       # number of WriteReq accesses(hits+misses)
system.cpu.dcache.WriteReq_accesses::total         2069                       # number of WriteReq accesses(hits+misses)
system.cpu.dcache.WriteReq_miss_rate::.cpu.data     0.009183                       # miss rate for WriteReq accesses
system.cpu.dcache.WriteReq_miss_rate::total     0.009183                       # miss rate for WriteReq accesses
system.cpu.dcache.WriteReq_avg_miss_latency::.cpu.data 397894.736842                       # average WriteReq miss latency
system.cpu.dcache.WriteReq_avg_miss_latency::total 397894.736842                       # average WriteReq miss latency
system.cpu.dcache.WriteReq_mshr_hits::.cpu.data            7                       # number of WriteReq MSHR hits
system.cpu.dcache.WriteReq_mshr_hits::total            7                       # number of WriteReq MSHR hits
system.cpu.dcache.WriteReq_mshr_misses::.cpu.data           12                       # number of WriteReq MSHR misses
system.cpu.dcache.WriteReq_mshr_misses::total           12                       # number of WriteReq MSHR misses
system.cpu.dcache.WriteReq_mshr_miss_latency::.cpu.data      4597000                       # number of WriteReq MSHR miss cycles
system.cpu.dcache.WriteReq_mshr_miss_latency::total      4597000                       # number of WriteReq MSHR miss cycles
system.cpu.dcache.WriteReq_mshr_miss_rate::.cpu.data     0.005800                       # mshr miss rate for WriteReq accesses
system.cpu.dcache.WriteReq_mshr_miss_rate::total     0.005800                       # mshr miss rate for WriteReq accesses
system.cpu.dcache.WriteReq_avg_mshr_miss_latency::.cpu.data 383083.333333                       # average WriteReq mshr miss latency
system.cpu.dcache.WriteReq_avg_mshr_miss_latency::total 383083.333333                       # average WriteReq mshr miss latency
system.cpu.dcache.SoftPFReq_hits::.cpu.data           68                       # number of SoftPFReq hits
system.cpu.dcache.SoftPFReq_hits::total            68                       # number of SoftPFReq hits
system.cpu.dcache.SoftPFReq_misses::.cpu.data            2                       # number of SoftPFReq misses
system.cpu.dcache.SoftPFReq_misses::total            2                       # number of SoftPFReq misses
system.cpu.dcache.SoftPFReq_accesses::.cpu.data           70                       # number of SoftPFReq accesses(hits+misses)
system.cpu.dcache.SoftPFReq_accesses::total           70                       # number of SoftPFReq accesses(hits+misses)
system.cpu.dcache.SoftPFReq_miss_rate::.cpu.data     0.028571                       # miss rate for SoftPFReq accesses
system.cpu.dcache.SoftPFReq_miss_rate::total     0.028571                       # miss rate for SoftPFReq accesses
system.cpu.dcache.SoftPFReq_mshr_misses::.cpu.data            1                       # number of SoftPFReq MSHR misses
system.cpu.dcache.SoftPFReq_mshr_misses::total            1                       # number of SoftPFReq MSHR misses
system.cpu.dcache.SoftPFReq_mshr_miss_latency::.cpu.data       507000                       # number of SoftPFReq MSHR miss cycles
system.cpu.dcache.SoftPFReq_mshr_miss_latency::total       507000                       # number of SoftPFReq MSHR miss cycles
system.cpu.dcache.SoftPFReq_mshr_miss_rate::.cpu.data     0.014286                       # mshr miss rate for SoftPFReq accesses
system.cpu.dcache.SoftPFReq_mshr_miss_rate::total     0.014286                       # mshr miss rate for SoftPFReq accesses
system.cpu.dcache.SoftPFReq_avg_mshr_miss_latency::.cpu.data       507000                       # average SoftPFReq mshr miss latency
system.cpu.dcache.SoftPFReq_avg_mshr_miss_latency::total       507000                       # average SoftPFReq mshr miss latency
system.cpu.dcache.LoadLockedReq_hits::.cpu.data           20                       # number of LoadLockedReq hits
system.cpu.dcache.LoadLockedReq_hits::total           20                       # number of LoadLockedReq hits
system.cpu.dcache.LoadLockedReq_accesses::.cpu.data           20                       # number of LoadLockedReq accesses(hits+misses)
system.cpu.dcache.LoadLockedReq_accesses::total           20                       # number of LoadLockedReq accesses(hits+misses)
system.cpu.dcache.StoreCondReq_hits::.cpu.data           20                       # number of StoreCondReq hits
system.cpu.dcache.StoreCondReq_hits::total           20                       # number of StoreCondReq hits
system.cpu.dcache.StoreCondReq_accesses::.cpu.data           20                       # number of StoreCondReq accesses(hits+misses)
system.cpu.dcache.StoreCondReq_accesses::total           20                       # number of StoreCondReq accesses(hits+misses)
system.cpu.dcache.power_state.pwrStateResidencyTicks::UNDEFINED     66609000                       # Cumulative time (in ticks) in various power states
system.cpu.dcache.tags.tagsinuse            30.278236                       # Cycle average of tags in use
system.cpu.dcache.tags.total_refs                5595                       # Total number of references to valid blocks.
system.cpu.dcache.tags.sampled_refs                53                       # Sample count of references to valid blocks.
system.cpu.dcache.tags.avg_refs            105.566038                       # Average number of references to valid blocks.
system.cpu.dcache.tags.warmup_cycle            807000                       # Cycle when the warmup percentage was hit.
system.cpu.dcache.tags.occ_blocks::.cpu.data    30.278236                       # Average occupied blocks per requestor
system.cpu.dcache.tags.occ_percent::.cpu.data     0.473097                       # Average percentage of cache occupancy
system.cpu.dcache.tags.occ_percent::total     0.473097                       # Average percentage of cache occupancy
system.cpu.dcache.tags.occ_task_id_blocks::1024           52                       # Occupied blocks per task id
system.cpu.dcache.tags.age_task_id_blocks_1024::0            5                       # Occupied blocks per task id
system.cpu.dcache.tags.age_task_id_blocks_1024::1           47                       # Occupied blocks per task id
system.cpu.dcache.tags.occ_task_id_percent::1024     0.812500                       # Percentage of cache occupancy per task id
system.cpu.dcache.tags.tag_accesses             89749                       # Number of tag accesses
system.cpu.dcache.tags.data_accesses            89749                       # Number of data accesses
system.cpu.dcache.tags.power_state.pwrStateResidencyTicks::UNDEFINED     66609000                       # Cumulative time (in ticks) in various power states
system.cpu.dtb.instHits                             0                       # ITB inst hits
system.cpu.dtb.instMisses                           0                       # ITB inst misses
system.cpu.dtb.readHits                             0                       # DTB read hits
system.cpu.dtb.readMisses                           0                       # DTB read misses
system.cpu.dtb.writeHits                            0                       # DTB write hits
system.cpu.dtb.writeMisses                          0                       # DTB write misses
system.cpu.dtb.inserts                              0                       # Number of times an entry is inserted into the TLB
system.cpu.dtb.flushTlb                             0                       # Number of times complete TLB was flushed
system.cpu.dtb.flushTlbMva                          0                       # Number of times TLB was flushed by MVA
system.cpu.dtb.flushTlbMvaAsid                      0                       # Number of times TLB was flushed by MVA & ASID
system.cpu.dtb.flushTlbAsid                         0                       # Number of times TLB was flushed by ASID
system.cpu.dtb.flushedEntries                       0                       # Number of entries that have been flushed from TLB
system.cpu.dtb.alignFaults                          0                       # Number of TLB faults due to alignment restrictions
system.cpu.dtb.prefetchFaults                       0                       # Number of TLB faults due to prefetch
system.cpu.dtb.domainFaults                         0                       # Number of TLB faults due to domain restrictions
system.cpu.dtb.permsFaults                          0                       # Number of TLB faults due to permissions restrictions
system.cpu.dtb.readAccesses                         0                       # DTB read accesses
system.cpu.dtb.writeAccesses                        0                       # DTB write accesses
system.cpu.dtb.instAccesses                         0                       # ITB inst accesses
system.cpu.dtb.hits                                 0                       # Total TLB (inst and data) hits
system.cpu.dtb.misses                               0                       # Total TLB (inst and data) misses
system.cpu.dtb.accesses                             0                       # Total TLB (inst and data) accesses
system.cpu.dtb.stage2_mmu.stage2_tlb.instHits            0                       # ITB inst hits
system.cpu.dtb.stage2_mmu.stage2_tlb.instMisses            0                       # ITB inst misses
system.cpu.dtb.stage2_mmu.stage2_tlb.readHits            0                       # DTB read hits
system.cpu.dtb.stage2_mmu.stage2_tlb.readMisses            0                       # DTB read misses
system.cpu.dtb.stage2_mmu.stage2_tlb.writeHits            0                       # DTB write hits
system.cpu.dtb.stage2_mmu.stage2_tlb.writeMisses            0                       # DTB write misses
system.cpu.dtb.stage2_mmu.stage2_tlb.inserts            0                       # Number of times an entry is inserted into the TLB
system.cpu.dtb.stage2_mmu.stage2_tlb.flushTlb            0                       # Number of times complete TLB was flushed
system.cpu.dtb.stage2_mmu.stage2_tlb.flushTlbMva            0                       # Number of times TLB was flushed by MVA
system.cpu.dtb.stage2_mmu.stage2_tlb.flushTlbMvaAsid            0                       # Number of times TLB was flushed by MVA & ASID
system.cpu.dtb.stage2_mmu.stage2_tlb.flushTlbAsid            0                       # Number of times TLB was flushed by ASID
system.cpu.dtb.stage2_mmu.stage2_tlb.flushedEntries            0                       # Number of entries that have been flushed from TLB
system.cpu.dtb.stage2_mmu.stage2_tlb.alignFaults            0                       # Number of TLB faults due to alignment restrictions
system.cpu.dtb.stage2_mmu.stage2_tlb.prefetchFaults            0                       # Number of TLB faults due to prefetch
system.cpu.dtb.stage2_mmu.stage2_tlb.domainFaults            0                       # Number of TLB faults due to domain restrictions
system.cpu.dtb.stage2_mmu.stage2_tlb.permsFaults            0                       # Number of TLB faults due to permissions restrictions
system.cpu.dtb.stage2_mmu.stage2_tlb.readAccesses            0                       # DTB read accesses
system.cpu.dtb.stage2_mmu.stage2_tlb.writeAccesses            0                       # DTB write accesses
system.cpu.dtb.stage2_mmu.stage2_tlb.instAccesses            0                       # ITB inst accesses
system.cpu.dtb.stage2_mmu.stage2_tlb.hits            0                       # Total TLB (inst and data) hits
system.cpu.dtb.stage2_mmu.stage2_tlb.misses            0                       # Total TLB (inst and data) misses
system.cpu.dtb.stage2_mmu.stage2_tlb.accesses            0                       # Total TLB (inst and data) accesses
system.cpu.dtb.stage2_mmu.stage2_tlb.walker.walks            0                       # Table walker walks requested
system.cpu.dtb.stage2_mmu.stage2_tlb.walker.requestOrigin_Requested::Data            0                       # Table walker requests started/completed, data/inst
system.cpu.dtb.stage2_mmu.stage2_tlb.walker.requestOrigin_Requested::Inst            0                       # Table walker requests started/completed, data/inst
system.cpu.dtb.stage2_mmu.stage2_tlb.walker.requestOrigin_Requested::total            0                       # Table walker requests started/completed, data/inst
system.cpu.dtb.stage2_mmu.stage2_tlb.walker.requestOrigin_Completed::Data            0                       # Table walker requests started/completed, data/inst
system.cpu.dtb.stage2_mmu.stage2_tlb.walker.requestOrigin_Completed::Inst            0                       # Table walker requests started/completed, data/inst
system.cpu.dtb.stage2_mmu.stage2_tlb.walker.requestOrigin_Completed::total            0                       # Table walker requests started/completed, data/inst
system.cpu.dtb.stage2_mmu.stage2_tlb.walker.requestOrigin::total            0                       # Table walker requests started/completed, data/inst
system.cpu.dtb.stage2_mmu.stage2_tlb.walker.power_state.pwrStateResidencyTicks::UNDEFINED     66609000                       # Cumulative time (in ticks) in various power states
system.cpu.dtb.walker.walks                         0                       # Table walker walks requested
system.cpu.dtb.walker.requestOrigin_Requested::Data            0                       # Table walker requests started/completed, data/inst
system.cpu.dtb.walker.requestOrigin_Requested::Inst            0                       # Table walker requests started/completed, data/inst
system.cpu.dtb.walker.requestOrigin_Requested::total            0                       # Table walker requests started/completed, data/inst
system.cpu.dtb.walker.requestOrigin_Completed::Data            0                       # Table walker requests started/completed, data/inst
system.cpu.dtb.walker.requestOrigin_Completed::Inst            0                       # Table walker requests started/completed, data/inst
system.cpu.dtb.walker.requestOrigin_Completed::total            0                       # Table walker requests started/completed, data/inst
system.cpu.dtb.walker.requestOrigin::total            0                       # Table walker requests started/completed, data/inst
system.cpu.dtb.walker.power_state.pwrStateResidencyTicks::UNDEFINED     66609000                       # Cumulative time (in ticks) in various power states
system.cpu.fetch2.intInstructions               16033                       # Number of integer instructions successfully decoded
system.cpu.fetch2.fpInstructions                    0                       # Number of floating point instructions successfully decoded
system.cpu.fetch2.vecInstructions                   0                       # Number of SIMD instructions successfully decoded
system.cpu.fetch2.loadInstructions               4508                       # Number of memory load instructions successfully decoded
system.cpu.fetch2.storeInstructions              1792                       # Number of memory store instructions successfully decoded
system.cpu.fetch2.amoInstructions                   0                       # Number of memory atomic instructions successfully decoded
system.cpu.icache.demand_hits::.cpu.inst         5126                       # number of demand (read+write) hits
system.cpu.icache.demand_hits::total             5126                       # number of demand (read+write) hits
system.cpu.icache.overall_hits::.cpu.inst         5126                       # number of overall hits
system.cpu.icache.overall_hits::total            5126                       # number of overall hits
system.cpu.icache.demand_misses::.cpu.inst          103                       # number of demand (read+write) misses
system.cpu.icache.demand_misses::total            103                       # number of demand (read+write) misses
system.cpu.icache.overall_misses::.cpu.inst          103                       # number of overall misses
system.cpu.icache.overall_misses::total           103                       # number of overall misses
system.cpu.icache.demand_miss_latency::.cpu.inst     30876000                       # number of demand (read+write) miss cycles
system.cpu.icache.demand_miss_latency::total     30876000                       # number of demand (read+write) miss cycles
system.cpu.icache.overall_miss_latency::.cpu.inst     30876000                       # number of overall miss cycles
system.cpu.icache.overall_miss_latency::total     30876000                       # number of overall miss cycles
system.cpu.icache.demand_accesses::.cpu.inst         5229                       # number of demand (read+write) accesses
system.cpu.icache.demand_accesses::total         5229                       # number of demand (read+write) accesses
system.cpu.icache.overall_accesses::.cpu.inst         5229                       # number of overall (read+write) accesses
system.cpu.icache.overall_accesses::total         5229                       # number of overall (read+write) accesses
system.cpu.icache.demand_miss_rate::.cpu.inst     0.019698                       # miss rate for demand accesses
system.cpu.icache.demand_miss_rate::total     0.019698                       # miss rate for demand accesses
system.cpu.icache.overall_miss_rate::.cpu.inst     0.019698                       # miss rate for overall accesses
system.cpu.icache.overall_miss_rate::total     0.019698                       # miss rate for overall accesses
system.cpu.icache.demand_avg_miss_latency::.cpu.inst 299766.990291                       # average overall miss latency
system.cpu.icache.demand_avg_miss_latency::total 299766.990291                       # average overall miss latency
system.cpu.icache.overall_avg_miss_latency::.cpu.inst 299766.990291                       # average overall miss latency
system.cpu.icache.overall_avg_miss_latency::total 299766.990291                       # average overall miss latency
system.cpu.icache.blocked_cycles::no_mshrs            0                       # number of cycles access was blocked
system.cpu.icache.blocked_cycles::no_targets            0                       # number of cycles access was blocked
system.cpu.icache.blocked::no_mshrs                 0                       # number of cycles access was blocked
system.cpu.icache.blocked::no_targets               0                       # number of cycles access was blocked
system.cpu.icache.avg_blocked_cycles::no_mshrs          nan                       # average number of cycles each access was blocked
system.cpu.icache.avg_blocked_cycles::no_targets          nan                       # average number of cycles each access was blocked
system.cpu.icache.writebacks::.writebacks           39                       # number of writebacks
system.cpu.icache.writebacks::total                39                       # number of writebacks
system.cpu.icache.demand_mshr_misses::.cpu.inst          103                       # number of demand (read+write) MSHR misses
system.cpu.icache.demand_mshr_misses::total          103                       # number of demand (read+write) MSHR misses
system.cpu.icache.overall_mshr_misses::.cpu.inst          103                       # number of overall MSHR misses
system.cpu.icache.overall_mshr_misses::total          103                       # number of overall MSHR misses
system.cpu.icache.demand_mshr_miss_latency::.cpu.inst     30670000                       # number of demand (read+write) MSHR miss cycles
system.cpu.icache.demand_mshr_miss_latency::total     30670000                       # number of demand (read+write) MSHR miss cycles
system.cpu.icache.overall_mshr_miss_latency::.cpu.inst     30670000                       # number of overall MSHR miss cycles
system.cpu.icache.overall_mshr_miss_latency::total     30670000                       # number of overall MSHR miss cycles
system.cpu.icache.demand_mshr_miss_rate::.cpu.inst     0.019698                       # mshr miss rate for demand accesses
system.cpu.icache.demand_mshr_miss_rate::total     0.019698                       # mshr miss rate for demand accesses
system.cpu.icache.overall_mshr_miss_rate::.cpu.inst     0.019698                       # mshr miss rate for overall accesses
system.cpu.icache.overall_mshr_miss_rate::total     0.019698                       # mshr miss rate for overall accesses
system.cpu.icache.demand_avg_mshr_miss_latency::.cpu.inst 297766.990291                       # average overall mshr miss latency
system.cpu.icache.demand_avg_mshr_miss_latency::total 297766.990291                       # average overall mshr miss latency
system.cpu.icache.overall_avg_mshr_miss_latency::.cpu.inst 297766.990291                       # average overall mshr miss latency
system.cpu.icache.overall_avg_mshr_miss_latency::total 297766.990291                       # average overall mshr miss latency
system.cpu.icache.replacements                     39                       # number of replacements
system.cpu.icache.ReadReq_hits::.cpu.inst         5126                       # number of ReadReq hits
system.cpu.icache.ReadReq_hits::total            5126                       # number of ReadReq hits
system.cpu.icache.ReadReq_misses::.cpu.inst          103                       # number of ReadReq misses
system.cpu.icache.ReadReq_misses::total           103                       # number of ReadReq misses
system.cpu.icache.ReadReq_miss_latency::.cpu.inst     30876000                       # number of ReadReq miss cycles
system.cpu.icache.ReadReq_miss_latency::total     30876000                       # number of ReadReq miss cycles
system.cpu.icache.ReadReq_accesses::.cpu.inst         5229                       # number of ReadReq accesses(hits+misses)
system.cpu.icache.ReadReq_accesses::total         5229                       # number of ReadReq accesses(hits+misses)
system.cpu.icache.ReadReq_miss_rate::.cpu.inst     0.019698                       # miss rate for ReadReq accesses
system.cpu.icache.ReadReq_miss_rate::total     0.019698                       # miss rate for ReadReq accesses
system.cpu.icache.ReadReq_avg_miss_latency::.cpu.inst 299766.990291                       # average ReadReq miss latency
system.cpu.icache.ReadReq_avg_miss_latency::total 299766.990291                       # average ReadReq miss latency
system.cpu.icache.ReadReq_mshr_misses::.cpu.inst          103                       # number of ReadReq MSHR misses
system.cpu.icache.ReadReq_mshr_misses::total          103                       # number of ReadReq MSHR misses
system.cpu.icache.ReadReq_mshr_miss_latency::.cpu.inst     30670000                       # number of ReadReq MSHR miss cycles
system.cpu.icache.ReadReq_mshr_miss_latency::total     30670000                       # number of ReadReq MSHR miss cycles
system.cpu.icache.ReadReq_mshr_miss_rate::.cpu.inst     0.019698                       # mshr miss rate for ReadReq accesses
system.cpu.icache.ReadReq_mshr_miss_rate::total     0.019698                       # mshr miss rate for ReadReq accesses
system.cpu.icache.ReadReq_avg_mshr_miss_latency::.cpu.inst 297766.990291                       # average ReadReq mshr miss latency
system.cpu.icache.ReadReq_avg_mshr_miss_latency::total 297766.990291                       # average ReadReq mshr miss latency
system.cpu.icache.power_state.pwrStateResidencyTicks::UNDEFINED     66609000                       # Cumulative time (in ticks) in various power states
system.cpu.icache.tags.tagsinuse            46.320933                       # Cycle average of tags in use
system.cpu.icache.tags.total_refs                5229                       # Total number of references to valid blocks.
system.cpu.icache.tags.sampled_refs               103                       # Sample count of references to valid blocks.
system.cpu.icache.tags.avg_refs             50.766990                       # Average number of references to valid blocks.
system.cpu.icache.tags.warmup_cycle            293000                       # Cycle when the warmup percentage was hit.
system.cpu.icache.tags.occ_blocks::.cpu.inst    46.320933                       # Average occupied blocks per requestor
system.cpu.icache.tags.occ_percent::.cpu.inst     0.723765                       # Average percentage of cache occupancy
system.cpu.icache.tags.occ_percent::total     0.723765                       # Average percentage of cache occupancy
system.cpu.icache.tags.occ_task_id_blocks::1024           64                       # Occupied blocks per task id
system.cpu.icache.tags.age_task_id_blocks_1024::0           22                       # Occupied blocks per task id
system.cpu.icache.tags.age_task_id_blocks_1024::1           42                       # Occupied blocks per task id
system.cpu.icache.tags.occ_task_id_percent::1024            1                       # Percentage of cache occupancy per task id
system.cpu.icache.tags.tag_accesses             83767                       # Number of tag accesses
system.cpu.icache.tags.data_accesses            83767                       # Number of data accesses
system.cpu.icache.tags.power_state.pwrStateResidencyTicks::UNDEFINED     66609000                       # Cumulative time (in ticks) in various power states
system.cpu.itb.instHits                             0                       # ITB inst hits
system.cpu.itb.instMisses                           0                       # ITB inst misses
system.cpu.itb.readHits                             0                       # DTB read hits
system.cpu.itb.readMisses                           0                       # DTB read misses
system.cpu.itb.writeHits                            0                       # DTB write hits
system.cpu.itb.writeMisses                          0                       # DTB write misses
system.cpu.itb.inserts                              0                       # Number of times an entry is inserted into the TLB
system.cpu.itb.flushTlb                             0                       # Number of times complete TLB was flushed
system.cpu.itb.flushTlbMva                          0                       # Number of times TLB was flushed by MVA
system.cpu.itb.flushTlbMvaAsid                      0                       # Number of times TLB was flushed by MVA & ASID
system.cpu.itb.flushTlbAsid                         0                       # Number of times TLB was flushed by ASID
system.cpu.itb.flushedEntries                       0                       # Number of entries that have been flushed from TLB
system.cpu.itb.alignFaults                          0                       # Number of TLB faults due to alignment restrictions
system.cpu.itb.prefetchFaults                       0                       # Number of TLB faults due to prefetch
system.cpu.itb.domainFaults                         0                       # Number of TLB faults due to domain restrictions
system.cpu.itb.permsFaults                          0                       # Number of TLB faults due to permissions restrictions
system.cpu.itb.readAccesses                         0                       # DTB read accesses
system.cpu.itb.writeAccesses                        0                       # DTB write accesses
system.cpu.itb.instAccesses                         0                       # ITB inst accesses
system.cpu.itb.hits                                 0                       # Total TLB (inst and data) hits
system.cpu.itb.misses                               0                       # Total TLB (inst and data) misses
system.cpu.itb.accesses                             0                       # Total TLB (inst and data) accesses
system.cpu.itb.stage2_mmu.stage2_tlb.instHits            0                       # ITB inst hits
system.cpu.itb.stage2_mmu.stage2_tlb.instMisses            0                       # ITB inst misses
system.cpu.itb.stage2_mmu.stage2_tlb.readHits            0                       # DTB read hits
system.cpu.itb.stage2_mmu.stage2_tlb.readMisses            0                       # DTB read misses
system.cpu.itb.stage2_mmu.stage2_tlb.writeHits            0                       # DTB write hits
system.cpu.itb.stage2_mmu.stage2_tlb.writeMisses            0                       # DTB write misses
system.cpu.itb.stage2_mmu.stage2_tlb.inserts            0                       # Number of times an entry is inserted into the TLB
system.cpu.itb.stage2_mmu.stage2_tlb.flushTlb            0                       # Number of times complete TLB was flushed
system.cpu.itb.stage2_mmu.stage2_tlb.flushTlbMva            0                       # Number of times TLB was flushed by MVA
system.cpu.itb.stage2_mmu.stage2_tlb.flushTlbMvaAsid            0                       # Number of times TLB was flushed by MVA & ASID
system.cpu.itb.stage2_mmu.stage2_tlb.flushTlbAsid            0                       # Number of times TLB was flushed by ASID
system.cpu.itb.stage2_mmu.stage2_tlb.flushedEntries            0                       # Number of entries that have been flushed from TLB
system.cpu.itb.stage2_mmu.stage2_tlb.alignFaults            0                       # Number of TLB faults due to alignment restrictions
system.cpu.itb.stage2_mmu.stage2_tlb.prefetchFaults            0                       # Number of TLB faults due to prefetch
system.cpu.itb.stage2_mmu.stage2_tlb.domainFaults            0                       # Number of TLB faults due to domain restrictions
system.cpu.itb.stage2_mmu.stage2_tlb.permsFaults            0                       # Number of TLB faults due to permissions restrictions
system.cpu.itb.stage2_mmu.stage2_tlb.readAccesses            0                       # DTB read accesses
system.cpu.itb.stage2_mmu.stage2_tlb.writeAccesses            0                       # DTB write accesses
system.cpu.itb.stage2_mmu.stage2_tlb.instAccesses            0                       # ITB inst accesses
system.cpu.itb.stage2_mmu.stage2_tlb.hits            0                       # Total TLB (inst and data) hits
system.cpu.itb.stage2_mmu.stage2_tlb.misses            0                       # Total TLB (inst and data) misses
system.cpu.itb.stage2_mmu.stage2_tlb.accesses            0                       # Total TLB (inst and data) accesses
system.cpu.itb.stage2_mmu.stage2_tlb.walker.walks            0                       # Table walker walks requested
system.cpu.itb.stage2_mmu.stage2_tlb.walker.requestOrigin_Requested::Data            0                       # Table walker requests started/completed, data/inst
system.cpu.itb.stage2_mmu.stage2_tlb.walker.requestOrigin_Requested::Inst            0                       # Table walker requests started/completed, data/inst
system.cpu.itb.stage2_mmu.stage2_tlb.walker.requestOrigin_Requested::total            0                       # Table walker requests started/completed, data/inst
system.cpu.itb.stage2_mmu.stage2_tlb.walker.requestOrigin_Completed::Data            0                       # Table walker requests started/completed, data/inst
system.cpu.itb.stage2_mmu.stage2_tlb.walker.requestOrigin_Completed::Inst            0                       # Table walker requests started/completed, data/inst
system.cpu.itb.stage2_mmu.stage2_tlb.walker.requestOrigin_Completed::total            0                       # Table walker requests started/completed, data/inst
system.cpu.itb.stage2_mmu.stage2_tlb.walker.requestOrigin::total            0                       # Table walker requests started/completed, data/inst
system.cpu.itb.stage2_mmu.stage2_tlb.walker.power_state.pwrStateResidencyTicks::UNDEFINED     66609000                       # Cumulative time (in ticks) in various power states
system.cpu.itb.walker.walks                         0                       # Table walker walks requested
system.cpu.itb.walker.requestOrigin_Requested::Data            0                       # Table walker requests started/completed, data/inst
system.cpu.itb.walker.requestOrigin_Requested::Inst            0                       # Table walker requests started/completed, data/inst
system.cpu.itb.walker.requestOrigin_Requested::total            0                       # Table walker requests started/completed, data/inst
system.cpu.itb.walker.requestOrigin_Completed::Data            0                       # Table walker requests started/completed, data/inst
system.cpu.itb.walker.requestOrigin_Completed::Inst            0                       # Table walker requests started/completed, data/inst
system.cpu.itb.walker.requestOrigin_Completed::total            0                       # Table walker requests started/completed, data/inst
system.cpu.itb.walker.requestOrigin::total            0                       # Table walker requests started/completed, data/inst
system.cpu.itb.walker.power_state.pwrStateResidencyTicks::UNDEFINED     66609000                       # Cumulative time (in ticks) in various power states
system.cpu.power_state.pwrStateResidencyTicks::ON     66609000                       # Cumulative time (in ticks) in various power states
system.cpu.thread0.numInsts                     15784                       # Number of Instructions committed
system.cpu.thread0.numOps                       17635                       # Number of Ops committed
system.cpu.thread0.numMemRefs                       0                       # Number of Memory References
system.cpu_clk_domain.clock                      1000                       # Clock period in ticks
system.cpu_voltage_domain.voltage                   1                       # Voltage in Volts
system.l2.demand_hits::.cpu.inst                    7                       # number of demand (read+write) hits
system.l2.demand_hits::.cpu.data                   19                       # number of demand (read+write) hits
system.l2.demand_hits::total                       26                       # number of demand (read+write) hits
system.l2.overall_hits::.cpu.inst                   7                       # number of overall hits
system.l2.overall_hits::.cpu.data                  19                       # number of overall hits
system.l2.overall_hits::total                      26                       # number of overall hits
system.l2.demand_misses::.cpu.inst                 96                       # number of demand (read+write) misses
system.l2.demand_misses::.cpu.data                 34                       # number of demand (read+write) misses
system.l2.demand_misses::total                    130                       # number of demand (read+write) misses
system.l2.overall_misses::.cpu.inst                96                       # number of overall misses
system.l2.overall_misses::.cpu.data                34                       # number of overall misses
system.l2.overall_misses::total                   130                       # number of overall misses
system.l2.demand_miss_latency::.cpu.inst     29600000                       # number of demand (read+write) miss cycles
system.l2.demand_miss_latency::.cpu.data     12047000                       # number of demand (read+write) miss cycles
system.l2.demand_miss_latency::total         41647000                       # number of demand (read+write) miss cycles
system.l2.overall_miss_latency::.cpu.inst     29600000                       # number of overall miss cycles
system.l2.overall_miss_latency::.cpu.data     12047000                       # number of overall miss cycles
system.l2.overall_miss_latency::total        41647000                       # number of overall miss cycles
system.l2.demand_accesses::.cpu.inst              103                       # number of demand (read+write) accesses
system.l2.demand_accesses::.cpu.data               53                       # number of demand (read+write) accesses
system.l2.demand_accesses::total                  156                       # number of demand (read+write) accesses
system.l2.overall_accesses::.cpu.inst             103                       # number of overall (read+write) accesses
system.l2.overall_accesses::.cpu.data              53                       # number of overall (read+write) accesses
system.l2.overall_accesses::total                 156                       # number of overall (read+write) accesses
system.l2.demand_miss_rate::.cpu.inst        0.932039                       # miss rate for demand accesses
system.l2.demand_miss_rate::.cpu.data        0.641509                       # miss rate for demand accesses
system.l2.demand_miss_rate::total            0.833333                       # miss rate for demand accesses
system.l2.overall_miss_rate::.cpu.inst       0.932039                       # miss rate for overall accesses
system.l2.overall_miss_rate::.cpu.data       0.641509                       # miss rate for overall accesses
system.l2.overall_miss_rate::total           0.833333                       # miss rate for overall accesses
system.l2.demand_avg_miss_latency::.cpu.inst 308333.333333                       # average overall miss latency
system.l2.demand_avg_miss_latency::.cpu.data 354323.529412                       # average overall miss latency
system.l2.demand_avg_miss_latency::total 320361.538462                       # average overall miss latency
system.l2.overall_avg_miss_latency::.cpu.inst 308333.333333                       # average overall miss latency
system.l2.overall_avg_miss_latency::.cpu.data 354323.529412                       # average overall miss latency
system.l2.overall_avg_miss_latency::total 320361.538462                       # average overall miss latency
system.l2.blocked_cycles::no_mshrs                  0                       # number of cycles access was blocked
system.l2.blocked_cycles::no_targets                0                       # number of cycles access was blocked
system.l2.blocked::no_mshrs                         0                       # number of cycles access was blocked
system.l2.blocked::no_targets                       0                       # number of cycles access was blocked
system.l2.avg_blocked_cycles::no_mshrs            nan                       # average number of cycles each access was blocked
system.l2.avg_blocked_cycles::no_targets          nan                       # average number of cycles each access was blocked
system.l2.demand_mshr_hits::.cpu.data               2                       # number of demand (read+write) MSHR hits
system.l2.demand_mshr_hits::total                   2                       # number of demand (read+write) MSHR hits
system.l2.overall_mshr_hits::.cpu.data              2                       # number of overall MSHR hits
system.l2.overall_mshr_hits::total                  2                       # number of overall MSHR hits
system.l2.demand_mshr_misses::.cpu.inst            96                       # number of demand (read+write) MSHR misses
system.l2.demand_mshr_misses::.cpu.data            32                       # number of demand (read+write) MSHR misses
system.l2.demand_mshr_misses::total               128                       # number of demand (read+write) MSHR misses
system.l2.overall_mshr_misses::.cpu.inst           96                       # number of overall MSHR misses
system.l2.overall_mshr_misses::.cpu.data           32                       # number of overall MSHR misses
system.l2.overall_mshr_misses::total              128                       # number of overall MSHR misses
system.l2.demand_mshr_miss_latency::.cpu.inst     27680000                       # number of demand (read+write) MSHR miss cycles
system.l2.demand_mshr_miss_latency::.cpu.data     10857000                       # number of demand (read+write) MSHR miss cycles
system.l2.demand_mshr_miss_latency::total     38537000                       # number of demand (read+write) MSHR miss cycles
system.l2.overall_mshr_miss_latency::.cpu.inst     27680000                       # number of overall MSHR miss cycles
system.l2.overall_mshr_miss_latency::.cpu.data     10857000                       # number of overall MSHR miss cycles
system.l2.overall_mshr_miss_latency::total     38537000                       # number of overall MSHR miss cycles
system.l2.demand_mshr_miss_rate::.cpu.inst     0.932039                       # mshr miss rate for demand accesses
system.l2.demand_mshr_miss_rate::.cpu.data     0.603774                       # mshr miss rate for demand accesses
system.l2.demand_mshr_miss_rate::total       0.820513                       # mshr miss rate for demand accesses
system.l2.overall_mshr_miss_rate::.cpu.inst     0.932039                       # mshr miss rate for overall accesses
system.l2.overall_mshr_miss_rate::.cpu.data     0.603774                       # mshr miss rate for overall accesses
system.l2.overall_mshr_miss_rate::total      0.820513                       # mshr miss rate for overall accesses
system.l2.demand_avg_mshr_miss_latency::.cpu.inst 288333.333333                       # average overall mshr miss latency
system.l2.demand_avg_mshr_miss_latency::.cpu.data 339281.250000                       # average overall mshr miss latency
system.l2.demand_avg_mshr_miss_latency::total 301070.312500                       # average overall mshr miss latency
system.l2.overall_avg_mshr_miss_latency::.cpu.inst 288333.333333                       # average overall mshr miss latency
system.l2.overall_avg_mshr_miss_latency::.cpu.data 339281.250000                       # average overall mshr miss latency
system.l2.overall_avg_mshr_miss_latency::total 301070.312500                       # average overall mshr miss latency
system.l2.replacements                              0                       # number of replacements
system.l2.WritebackClean_hits::.writebacks           31                       # number of WritebackClean hits
system.l2.WritebackClean_hits::total               31                       # number of WritebackClean hits
system.l2.WritebackClean_accesses::.writebacks           31                       # number of WritebackClean accesses(hits+misses)
system.l2.WritebackClean_accesses::total           31                       # number of WritebackClean accesses(hits+misses)
system.l2.ReadExReq_misses::.cpu.data              12                       # number of ReadExReq misses
system.l2.ReadExReq_misses::total                  12                       # number of ReadExReq misses
system.l2.ReadExReq_miss_latency::.cpu.data      4508000                       # number of ReadExReq miss cycles
system.l2.ReadExReq_miss_latency::total       4508000                       # number of ReadExReq miss cycles
system.l2.ReadExReq_accesses::.cpu.data            12                       # number of ReadExReq accesses(hits+misses)
system.l2.ReadExReq_accesses::total                12                       # number of ReadExReq accesses(hits+misses)
system.l2.ReadExReq_miss_rate::.cpu.data            1                       # miss rate for ReadExReq accesses
system.l2.ReadExReq_miss_rate::total                1                       # miss rate for ReadExReq accesses
system.l2.ReadExReq_avg_miss_latency::.cpu.data 375666.666667                       # average ReadExReq miss latency
system.l2.ReadExReq_avg_miss_latency::total 375666.666667                       # average ReadExReq miss latency
system.l2.ReadExReq_mshr_misses::.cpu.data           12                       # number of ReadExReq MSHR misses
system.l2.ReadExReq_mshr_misses::total             12                       # number of ReadExReq MSHR misses
system.l2.ReadExReq_mshr_miss_latency::.cpu.data      4268000                       # number of ReadExReq MSHR miss cycles
system.l2.ReadExReq_mshr_miss_latency::total      4268000                       # number of ReadExReq MSHR miss cycles
system.l2.ReadExReq_mshr_miss_rate::.cpu.data            1                       # mshr miss rate for ReadExReq accesses
system.l2.ReadExReq_mshr_miss_rate::total            1                       # mshr miss rate for ReadExReq accesses
system.l2.ReadExReq_avg_mshr_miss_latency::.cpu.data 355666.666667                       # average ReadExReq mshr miss latency
system.l2.ReadExReq_avg_mshr_miss_latency::total 355666.666667                       # average ReadExReq mshr miss latency
system.l2.ReadCleanReq_hits::.cpu.inst              7                       # number of ReadCleanReq hits
system.l2.ReadCleanReq_hits::total                  7                       # number of ReadCleanReq hits
system.l2.ReadCleanReq_misses::.cpu.inst           96                       # number of ReadCleanReq misses
system.l2.ReadCleanReq_misses::total               96                       # number of ReadCleanReq misses
system.l2.ReadCleanReq_miss_latency::.cpu.inst     29600000                       # number of ReadCleanReq miss cycles
system.l2.ReadCleanReq_miss_latency::total     29600000                       # number of ReadCleanReq miss cycles
system.l2.ReadCleanReq_accesses::.cpu.inst          103                       # number of ReadCleanReq accesses(hits+misses)
system.l2.ReadCleanReq_accesses::total            103                       # number of ReadCleanReq accesses(hits+misses)
system.l2.ReadCleanReq_miss_rate::.cpu.inst     0.932039                       # miss rate for ReadCleanReq accesses
system.l2.ReadCleanReq_miss_rate::total      0.932039                       # miss rate for ReadCleanReq accesses
system.l2.ReadCleanReq_avg_miss_latency::.cpu.inst 308333.333333                       # average ReadCleanReq miss latency
system.l2.ReadCleanReq_avg_miss_latency::total 308333.333333                       # average ReadCleanReq miss latency
system.l2.ReadCleanReq_mshr_misses::.cpu.inst           96                       # number of ReadCleanReq MSHR misses
system.l2.ReadCleanReq_mshr_misses::total           96                       # number of ReadCleanReq MSHR misses
system.l2.ReadCleanReq_mshr_miss_latency::.cpu.inst     27680000                       # number of ReadCleanReq MSHR miss cycles
system.l2.ReadCleanReq_mshr_miss_latency::total     27680000                       # number of ReadCleanReq MSHR miss cycles
system.l2.ReadCleanReq_mshr_miss_rate::.cpu.inst     0.932039                       # mshr miss rate for ReadCleanReq accesses
system.l2.ReadCleanReq_mshr_miss_rate::total     0.932039                       # mshr miss rate for ReadCleanReq accesses
system.l2.ReadCleanReq_avg_mshr_miss_latency::.cpu.inst 288333.333333                       # average ReadCleanReq mshr miss latency
system.l2.ReadCleanReq_avg_mshr_miss_latency::total 288333.333333                       # average ReadCleanReq mshr miss latency
system.l2.ReadSharedReq_hits::.cpu.data            19                       # number of ReadSharedReq hits
system.l2.ReadSharedReq_hits::total                19                       # number of ReadSharedReq hits
system.l2.ReadSharedReq_misses::.cpu.data           22                       # number of ReadSharedReq misses
system.l2.ReadSharedReq_misses::total              22                       # number of ReadSharedReq misses
system.l2.ReadSharedReq_miss_latency::.cpu.data      7539000                       # number of ReadSharedReq miss cycles
system.l2.ReadSharedReq_miss_latency::total      7539000                       # number of ReadSharedReq miss cycles
system.l2.ReadSharedReq_accesses::.cpu.data           41                       # number of ReadSharedReq accesses(hits+misses)
system.l2.ReadSharedReq_accesses::total            41                       # number of ReadSharedReq accesses(hits+misses)
system.l2.ReadSharedReq_miss_rate::.cpu.data     0.536585                       # miss rate for ReadSharedReq accesses
system.l2.ReadSharedReq_miss_rate::total     0.536585                       # miss rate for ReadSharedReq accesses
system.l2.ReadSharedReq_avg_miss_latency::.cpu.data 342681.818182                       # average ReadSharedReq miss latency
system.l2.ReadSharedReq_avg_miss_latency::total 342681.818182                       # average ReadSharedReq miss latency
system.l2.ReadSharedReq_mshr_hits::.cpu.data            2                       # number of ReadSharedReq MSHR hits
system.l2.ReadSharedReq_mshr_hits::total            2                       # number of ReadSharedReq MSHR hits
system.l2.ReadSharedReq_mshr_misses::.cpu.data           20                       # number of ReadSharedReq MSHR misses
system.l2.ReadSharedReq_mshr_misses::total           20                       # number of ReadSharedReq MSHR misses
system.l2.ReadSharedReq_mshr_miss_latency::.cpu.data      6589000                       # number of ReadSharedReq MSHR miss cycles
system.l2.ReadSharedReq_mshr_miss_latency::total      6589000                       # number of ReadSharedReq MSHR miss cycles
system.l2.ReadSharedReq_mshr_miss_rate::.cpu.data     0.487805                       # mshr miss rate for ReadSharedReq accesses
system.l2.ReadSharedReq_mshr_miss_rate::total     0.487805                       # mshr miss rate for ReadSharedReq accesses
system.l2.ReadSharedReq_avg_mshr_miss_latency::.cpu.data       329450                       # average ReadSharedReq mshr miss latency
system.l2.ReadSharedReq_avg_mshr_miss_latency::total       329450                       # average ReadSharedReq mshr miss latency
system.l2.power_state.pwrStateResidencyTicks::UNDEFINED     66609000                       # Cumulative time (in ticks) in various power states
system.l2.tags.tagsinuse                    70.695643                       # Cycle average of tags in use
system.l2.tags.total_refs                         186                       # Total number of references to valid blocks.
system.l2.tags.sampled_refs                       128                       # Sample count of references to valid blocks.
system.l2.tags.avg_refs                      1.453125                       # Average number of references to valid blocks.
system.l2.tags.warmup_cycle                    272000                       # Cycle when the warmup percentage was hit.
system.l2.tags.occ_blocks::.cpu.inst        51.642992                       # Average occupied blocks per requestor
system.l2.tags.occ_blocks::.cpu.data        19.052651                       # Average occupied blocks per requestor
system.l2.tags.occ_percent::.cpu.inst        0.100865                       # Average percentage of cache occupancy
system.l2.tags.occ_percent::.cpu.data        0.037212                       # Average percentage of cache occupancy
system.l2.tags.occ_percent::total            0.138077                       # Average percentage of cache occupancy
system.l2.tags.occ_task_id_blocks::1024           128                       # Occupied blocks per task id
system.l2.tags.age_task_id_blocks_1024::0           18                       # Occupied blocks per task id
system.l2.tags.age_task_id_blocks_1024::1          110                       # Occupied blocks per task id
system.l2.tags.occ_task_id_percent::1024     0.250000                       # Percentage of cache occupancy per task id
system.l2.tags.tag_accesses                       880                       # Number of tag accesses
system.l2.tags.data_accesses                      880                       # Number of data accesses
system.l2.tags.power_state.pwrStateResidencyTicks::UNDEFINED     66609000                       # Cumulative time (in ticks) in various power states
system.mem_ctrls.avgPriority_.cpu.inst::samples      3072.00                       # Average QoS priority value for accepted requests
system.mem_ctrls.avgPriority_.cpu.data::samples      1024.00                       # Average QoS priority value for accepted requests
system.mem_ctrls.priorityMinLatency      0.000000018750                       # per QoS priority minimum request to response latency (s)
system.mem_ctrls.priorityMaxLatency      0.000000996250                       # per QoS priority maximum request to response latency (s)
system.mem_ctrls.numReadWriteTurnArounds            0                       # Number of turnarounds from READ to WRITE
system.mem_ctrls.numWriteReadTurnArounds            0                       # Number of turnarounds from WRITE to READ
system.mem_ctrls.numStayReadState                4240                       # Number of times bus staying in READ state
system.mem_ctrls.numStayWriteState                  0                       # Number of times bus staying in WRITE state
system.mem_ctrls.readReqs                         128                       # Number of read requests accepted
system.mem_ctrls.writeReqs                          0                       # Number of write requests accepted
system.mem_ctrls.readBursts                      4096                       # Number of controller read bursts, including those serviced by the write queue
system.mem_ctrls.writeBursts                        0                       # Number of controller write bursts, including those merged in the write queue
system.mem_ctrls.servicedByWrQ                      0                       # Number of controller read bursts serviced by the write queue
system.mem_ctrls.mergedWrBursts                     0                       # Number of controller write bursts merged with an existing one
system.mem_ctrls.neitherReadNorWriteReqs            0                       # Number of requests that are neither read nor write
system.mem_ctrls.avgRdQLen                      31.99                       # Average read queue length when enqueuing
system.mem_ctrls.avgWrQLen                       0.00                       # Average write queue length when enqueuing
system.mem_ctrls.numRdRetry                       353                       # Number of times read queue was full causing retry
system.mem_ctrls.numWrRetry                         0                       # Number of times write queue was full causing retry
system.mem_ctrls.readPktSize::0                     0                       # Read request sizes (log2)
system.mem_ctrls.readPktSize::1                     0                       # Read request sizes (log2)
system.mem_ctrls.readPktSize::2                     0                       # Read request sizes (log2)
system.mem_ctrls.readPktSize::3                     0                       # Read request sizes (log2)
system.mem_ctrls.readPktSize::4                     0                       # Read request sizes (log2)
system.mem_ctrls.readPktSize::5                     0                       # Read request sizes (log2)
system.mem_ctrls.readPktSize::6                  4096                       # Read request sizes (log2)
system.mem_ctrls.readPktSize::7                     0                       # Read request sizes (log2)
system.mem_ctrls.readPktSize::8                     0                       # Read request sizes (log2)
system.mem_ctrls.readPktSize::9                     0                       # Read request sizes (log2)
system.mem_ctrls.readPktSize::10                    0                       # Read request sizes (log2)
system.mem_ctrls.readPktSize::11                    0                       # Read request sizes (log2)
system.mem_ctrls.writePktSize::0                    0                       # Write request sizes (log2)
system.mem_ctrls.writePktSize::1                    0                       # Write request sizes (log2)
system.mem_ctrls.writePktSize::2                    0                       # Write request sizes (log2)
system.mem_ctrls.writePktSize::3                    0                       # Write request sizes (log2)
system.mem_ctrls.writePktSize::4                    0                       # Write request sizes (log2)
system.mem_ctrls.writePktSize::5                    0                       # Write request sizes (log2)
system.mem_ctrls.writePktSize::6                    0                       # Write request sizes (log2)
system.mem_ctrls.writePktSize::7                    0                       # Write request sizes (log2)
system.mem_ctrls.writePktSize::8                    0                       # Write request sizes (log2)
system.mem_ctrls.writePktSize::9                    0                       # Write request sizes (log2)
system.mem_ctrls.writePktSize::10                   0                       # Write request sizes (log2)
system.mem_ctrls.writePktSize::11                   0                       # Write request sizes (log2)
system.mem_ctrls.rdQLenPdf::0                     128                       # What read queue length does an incoming req see
system.mem_ctrls.rdQLenPdf::1                     128                       # What read queue length does an incoming req see
system.mem_ctrls.rdQLenPdf::2                     128                       # What read queue length does an incoming req see
system.mem_ctrls.rdQLenPdf::3                     128                       # What read queue length does an incoming req see
system.mem_ctrls.rdQLenPdf::4                     128                       # What read queue length does an incoming req see
system.mem_ctrls.rdQLenPdf::5                     128                       # What read queue length does an incoming req see
system.mem_ctrls.rdQLenPdf::6                     128                       # What read queue length does an incoming req see
system.mem_ctrls.rdQLenPdf::7                     128                       # What read queue length does an incoming req see
system.mem_ctrls.rdQLenPdf::8                     128                       # What read queue length does an incoming req see
system.mem_ctrls.rdQLenPdf::9                     128                       # What read queue length does an incoming req see
system.mem_ctrls.rdQLenPdf::10                    128                       # What read queue length does an incoming req see
system.mem_ctrls.rdQLenPdf::11                    128                       # What read queue length does an incoming req see
system.mem_ctrls.rdQLenPdf::12                    128                       # What read queue length does an incoming req see
system.mem_ctrls.rdQLenPdf::13                    128                       # What read queue length does an incoming req see
system.mem_ctrls.rdQLenPdf::14                    128                       # What read queue length does an incoming req see
system.mem_ctrls.rdQLenPdf::15                    128                       # What read queue length does an incoming req see
system.mem_ctrls.rdQLenPdf::16                    128                       # What read queue length does an incoming req see
system.mem_ctrls.rdQLenPdf::17                    128                       # What read queue length does an incoming req see
system.mem_ctrls.rdQLenPdf::18                    128                       # What read queue length does an incoming req see
[...]
system.mem_ctrls.dram.num_reads::.cpu.inst           96                       # Number of read requests responded to by this memory
system.mem_ctrls.dram.num_reads::.cpu.data           32                       # Number of read requests responded to by this memory
system.mem_ctrls.dram.num_reads::total            128                       # Number of read requests responded to by this memory
system.mem_ctrls.dram.bw_read::.cpu.inst   2951673197                       # Total read bandwidth from this memory (bytes/s)
system.mem_ctrls.dram.bw_read::.cpu.data    983891066                       # Total read bandwidth from this memory (bytes/s)
system.mem_ctrls.dram.bw_read::total       3935564263                       # Total read bandwidth from this memory (bytes/s)
system.mem_ctrls.dram.bw_inst_read::.cpu.inst   2951673197                       # Instruction read bandwidth from this memory (bytes/s)
system.mem_ctrls.dram.bw_inst_read::total   2951673197                       # Instruction read bandwidth from this memory (bytes/s)
system.mem_ctrls.dram.bw_total::.cpu.inst   2951673197                       # Total bandwidth to/from this memory (bytes/s)
system.mem_ctrls.dram.bw_total::.cpu.data    983891066                       # Total bandwidth to/from this memory (bytes/s)
system.mem_ctrls.dram.bw_total::total      3935564263                       # Total bandwidth to/from this memory (bytes/s)
system.mem_ctrls.dram.readBursts                 4096                       # Number of DRAM read bursts
system.mem_ctrls.dram.writeBursts                   0                       # Number of DRAM write bursts
system.mem_ctrls.dram.perBankRdBursts::0          416                       # Per bank write bursts
system.mem_ctrls.dram.perBankRdBursts::1          224                       # Per bank write bursts
system.mem_ctrls.dram.perBankRdBursts::2          256                       # Per bank write bursts
system.mem_ctrls.dram.perBankRdBursts::3          288                       # Per bank write bursts
system.mem_ctrls.dram.perBankRdBursts::4          192                       # Per bank write bursts
system.mem_ctrls.dram.perBankRdBursts::5          352                       # Per bank write bursts
system.mem_ctrls.dram.perBankRdBursts::6           96                       # Per bank write bursts
system.mem_ctrls.dram.perBankRdBursts::7          256                       # Per bank write bursts
system.mem_ctrls.dram.perBankRdBursts::8          288                       # Per bank write bursts
system.mem_ctrls.dram.perBankRdBursts::9          416                       # Per bank write bursts
system.mem_ctrls.dram.perBankRdBursts::10          352                       # Per bank write bursts
system.mem_ctrls.dram.perBankRdBursts::11          192                       # Per bank write bursts
system.mem_ctrls.dram.perBankRdBursts::12          256                       # Per bank write bursts
system.mem_ctrls.dram.perBankRdBursts::13          192                       # Per bank write bursts
system.mem_ctrls.dram.perBankRdBursts::14          160                       # Per bank write bursts
system.mem_ctrls.dram.perBankRdBursts::15          160                       # Per bank write bursts
system.mem_ctrls.dram.perBankWrBursts::0            0                       # Per bank write bursts
system.mem_ctrls.dram.perBankWrBursts::1            0                       # Per bank write bursts
system.mem_ctrls.dram.perBankWrBursts::2            0                       # Per bank write bursts
system.mem_ctrls.dram.perBankWrBursts::3            0                       # Per bank write bursts
system.mem_ctrls.dram.perBankWrBursts::4            0                       # Per bank write bursts
system.mem_ctrls.dram.perBankWrBursts::5            0                       # Per bank write bursts
system.mem_ctrls.dram.perBankWrBursts::6            0                       # Per bank write bursts
system.mem_ctrls.dram.perBankWrBursts::7            0                       # Per bank write bursts
system.mem_ctrls.dram.perBankWrBursts::8            0                       # Per bank write bursts
system.mem_ctrls.dram.perBankWrBursts::9            0                       # Per bank write bursts
system.mem_ctrls.dram.perBankWrBursts::10            0                       # Per bank write bursts
system.mem_ctrls.dram.perBankWrBursts::11            0                       # Per bank write bursts
system.mem_ctrls.dram.perBankWrBursts::12            0                       # Per bank write bursts
system.mem_ctrls.dram.perBankWrBursts::13            0                       # Per bank write bursts
system.mem_ctrls.dram.perBankWrBursts::14            0                       # Per bank write bursts
system.mem_ctrls.dram.perBankWrBursts::15            0                       # Per bank write bursts
system.mem_ctrls.dram.totQLat               471580250                       # Total ticks spent queuing
system.mem_ctrls.dram.totBusLat              20480000                       # Total ticks spent in databus transfers
system.mem_ctrls.dram.totMemAccLat          548380250                       # Total ticks spent from burst creation until serviced by the DRAM
system.mem_ctrls.dram.avgQLat               115131.90                       # Average queueing delay per DRAM burst
system.mem_ctrls.dram.avgBusLat               5000.00                       # Average bus latency per DRAM burst
system.mem_ctrls.dram.avgMemAccLat          133881.90                       # Average memory access latency per DRAM burst
system.mem_ctrls.dram.readRowHits                3836                       # Number of row buffer hits during reads
system.mem_ctrls.dram.writeRowHits                  0                       # Number of row buffer hits during writes
system.mem_ctrls.dram.readRowHitRate            93.65                       # Row buffer hit rate for reads
system.mem_ctrls.dram.writeRowHitRate             nan                       # Row buffer hit rate for writes
system.mem_ctrls.dram.bytesPerActivate::samples          260                       # Bytes accessed per row activation
system.mem_ctrls.dram.bytesPerActivate::mean  1008.246154                       # Bytes accessed per row activation
system.mem_ctrls.dram.bytesPerActivate::gmean   996.506117                       # Bytes accessed per row activation
system.mem_ctrls.dram.bytesPerActivate::stdev    97.754563                       # Bytes accessed per row activation
system.mem_ctrls.dram.bytesPerActivate::0-127            1      0.38%      0.38% # Bytes accessed per row activation
system.mem_ctrls.dram.bytesPerActivate::384-511            2      0.77%      1.15% # Bytes accessed per row activation
system.mem_ctrls.dram.bytesPerActivate::512-639            3      1.15%      2.31% # Bytes accessed per row activation
system.mem_ctrls.dram.bytesPerActivate::640-767            1      0.38%      2.69% # Bytes accessed per row activation
system.mem_ctrls.dram.bytesPerActivate::896-1023            1      0.38%      3.08% # Bytes accessed per row activation
system.mem_ctrls.dram.bytesPerActivate::1024-1151          252     96.92%    100.00% # Bytes accessed per row activation
system.mem_ctrls.dram.bytesPerActivate::total          260                       # Bytes accessed per row activation
system.mem_ctrls.dram.bytesRead                262144                       # Total number of bytes read from DRAM
system.mem_ctrls.dram.bytesWritten                  0                       # Total number of bytes written to DRAM
system.mem_ctrls.dram.avgRdBW             3935.564263                       # Average DRAM read bandwidth in MiBytes/s
system.mem_ctrls.dram.avgWrBW                       0                       # Average DRAM write bandwidth in MiBytes/s
system.mem_ctrls.dram.peakBW                 12800.00                       # Theoretical peak bandwidth in MiByte/s
system.mem_ctrls.dram.busUtil                   30.75                       # Data bus utilization in percentage
system.mem_ctrls.dram.busUtilRead               30.75                       # Data bus utilization in percentage for reads
system.mem_ctrls.dram.busUtilWrite               0.00                       # Data bus utilization in percentage for writes
system.mem_ctrls.dram.pageHitRate               93.65                       # Row buffer hit rate, read and write combined
system.mem_ctrls.dram.power_state.pwrStateResidencyTicks::UNDEFINED     66609000                       # Cumulative time (in ticks) in various power states
system.mem_ctrls.dram.rank0.actEnergy          942480                       # Energy for activate commands per rank (pJ)
system.mem_ctrls.dram.rank0.preEnergy          500940                       # Energy for precharge commands per rank (pJ)
system.mem_ctrls.dram.rank0.readEnergy       14851200                       # Energy for read commands per rank (pJ)
system.mem_ctrls.dram.rank0.writeEnergy             0                       # Energy for write commands per rank (pJ)
system.mem_ctrls.dram.rank0.refreshEnergy 4917120.000000                       # Energy for refresh commands per rank (pJ)
system.mem_ctrls.dram.rank0.actBackEnergy      8719290                       # Energy for active background per rank (pJ)
system.mem_ctrls.dram.rank0.preBackEnergy     18235680                       # Energy for precharge background per rank (pJ)
system.mem_ctrls.dram.rank0.actPowerDownEnergy            0                       # Energy for active power-down per rank (pJ)
system.mem_ctrls.dram.rank0.prePowerDownEnergy            0                       # Energy for precharge power-down per rank (pJ)
system.mem_ctrls.dram.rank0.selfRefreshEnergy            0                       # Energy for self refresh per rank (pJ)
system.mem_ctrls.dram.rank0.totalEnergy      48166710                       # Total energy per rank (pJ)
system.mem_ctrls.dram.rank0.averagePower   723.126154                       # Core power per rank (mW)
system.mem_ctrls.dram.rank0.totalIdleTime            0                       # Total Idle time Per DRAM Rank
system.mem_ctrls.dram.rank0.pwrStateTime::IDLE     45683000                       # Time in different power states
system.mem_ctrls.dram.rank0.pwrStateTime::REF      2080000                       # Time in different power states
system.mem_ctrls.dram.rank0.pwrStateTime::SREF            0                       # Time in different power states
system.mem_ctrls.dram.rank0.pwrStateTime::PRE_PDN            0                       # Time in different power states
system.mem_ctrls.dram.rank0.pwrStateTime::ACT     18846000                       # Time in different power states
system.mem_ctrls.dram.rank0.pwrStateTime::ACT_PDN            0                       # Time in different power states
system.mem_ctrls.dram.rank1.actEnergy          913920                       # Energy for activate commands per rank (pJ)
system.mem_ctrls.dram.rank1.preEnergy          485760                       # Energy for precharge commands per rank (pJ)
system.mem_ctrls.dram.rank1.readEnergy       14394240                       # Energy for read commands per rank (pJ)
system.mem_ctrls.dram.rank1.writeEnergy             0                       # Energy for write commands per rank (pJ)
system.mem_ctrls.dram.rank1.refreshEnergy 4917120.000000                       # Energy for refresh commands per rank (pJ)
system.mem_ctrls.dram.rank1.actBackEnergy     10597440                       # Energy for active background per rank (pJ)
system.mem_ctrls.dram.rank1.preBackEnergy     16654080                       # Energy for precharge background per rank (pJ)
system.mem_ctrls.dram.rank1.actPowerDownEnergy            0                       # Energy for active power-down per rank (pJ)
system.mem_ctrls.dram.rank1.prePowerDownEnergy            0                       # Energy for precharge power-down per rank (pJ)
system.mem_ctrls.dram.rank1.selfRefreshEnergy            0                       # Energy for self refresh per rank (pJ)
system.mem_ctrls.dram.rank1.totalEnergy      47962560                       # Total energy per rank (pJ)
system.mem_ctrls.dram.rank1.averagePower   720.061253                       # Core power per rank (mW)
system.mem_ctrls.dram.rank1.totalIdleTime            0                       # Total Idle time Per DRAM Rank
system.mem_ctrls.dram.rank1.pwrStateTime::IDLE     41803000                       # Time in different power states
system.mem_ctrls.dram.rank1.pwrStateTime::REF      2080000                       # Time in different power states
system.mem_ctrls.dram.rank1.pwrStateTime::SREF            0                       # Time in different power states
system.mem_ctrls.dram.rank1.pwrStateTime::PRE_PDN            0                       # Time in different power states
system.mem_ctrls.dram.rank1.pwrStateTime::ACT     22726000                       # Time in different power states
system.mem_ctrls.dram.rank1.pwrStateTime::ACT_PDN            0                       # Time in different power states
system.mem_ctrls.power_state.pwrStateResidencyTicks::UNDEFINED     66609000                       # Cumulative time (in ticks) in various power states
system.membus.trans_dist::ReadResp                116                       # Transaction distribution
system.membus.trans_dist::ReadExReq                12                       # Transaction distribution
system.membus.trans_dist::ReadExResp               12                       # Transaction distribution
system.membus.trans_dist::ReadSharedReq           116                       # Transaction distribution
system.membus.pkt_count_system.l2.mem_side_port::system.mem_ctrls.port          256                       # Packet count per connected requestor and responder (bytes)
system.membus.pkt_count::total                    256                       # Packet count per connected requestor and responder (bytes)
system.membus.pkt_size_system.l2.mem_side_port::system.mem_ctrls.port       262144                       # Cumulative packet size per connected requestor and responder (bytes)
system.membus.pkt_size::total                  262144                       # Cumulative packet size per connected requestor and responder (bytes)
system.membus.snoops                                0                       # Total snoops (count)
system.membus.snoopTraffic                          0                       # Total snoop traffic (bytes)
system.membus.snoop_fanout::samples               481                       # Request fanout histogram
system.membus.snoop_fanout::mean                    0                       # Request fanout histogram
system.membus.snoop_fanout::stdev                   0                       # Request fanout histogram
system.membus.snoop_fanout::underflows              0      0.00%      0.00% # Request fanout histogram
system.membus.snoop_fanout::0                     481    100.00%    100.00% # Request fanout histogram
system.membus.snoop_fanout::1                       0      0.00%    100.00% # Request fanout histogram
system.membus.snoop_fanout::overflows               0      0.00%    100.00% # Request fanout histogram
system.membus.snoop_fanout::min_value               0                       # Request fanout histogram
system.membus.snoop_fanout::max_value               0                       # Request fanout histogram
system.membus.snoop_fanout::total                 481                       # Request fanout histogram
system.membus.power_state.pwrStateResidencyTicks::UNDEFINED     66609000                       # Cumulative time (in ticks) in various power states
system.membus.reqLayer0.occupancy              646500                       # Layer occupancy (ticks)
system.membus.reqLayer0.utilization               1.0                       # Layer utilization (%)
system.membus.respLayer1.occupancy           16575750                       # Layer occupancy (ticks)
system.membus.respLayer1.utilization             24.9                       # Layer utilization (%)
system.tol2bus.trans_dist::ReadResp               144                       # Transaction distribution
system.tol2bus.trans_dist::WritebackClean           39                       # Transaction distribution
system.tol2bus.trans_dist::CleanEvict               1                       # Transaction distribution
system.tol2bus.trans_dist::ReadExReq               12                       # Transaction distribution
system.tol2bus.trans_dist::ReadExResp              12                       # Transaction distribution
system.tol2bus.trans_dist::ReadCleanReq           103                       # Transaction distribution
system.tol2bus.trans_dist::ReadSharedReq           41                       # Transaction distribution
system.tol2bus.pkt_count_system.cpu.icache.mem_side_port::system.l2.cpu_side_port          245                       # Packet count per connected requestor and responder (bytes)
system.tol2bus.pkt_count_system.cpu.dcache.mem_side_port::system.l2.cpu_side_port          107                       # Packet count per connected requestor and responder (bytes)
system.tol2bus.pkt_count::total                   352                       # Packet count per connected requestor and responder (bytes)
system.tol2bus.pkt_size_system.cpu.icache.mem_side_port::system.l2.cpu_side_port       290816                       # Cumulative packet size per connected requestor and responder (bytes)
system.tol2bus.pkt_size_system.cpu.dcache.mem_side_port::system.l2.cpu_side_port       108544                       # Cumulative packet size per connected requestor and responder (bytes)
system.tol2bus.pkt_size::total                 399360                       # Cumulative packet size per connected requestor and responder (bytes)
system.tol2bus.snoops                               0                       # Total snoops (count)
system.tol2bus.snoopTraffic                         0                       # Total snoop traffic (bytes)
system.tol2bus.snoop_fanout::samples              156                       # Request fanout histogram
system.tol2bus.snoop_fanout::mean            0.147436                       # Request fanout histogram
system.tol2bus.snoop_fanout::stdev           0.355682                       # Request fanout histogram
system.tol2bus.snoop_fanout::underflows             0      0.00%      0.00% # Request fanout histogram
system.tol2bus.snoop_fanout::0                    133     85.26%     85.26% # Request fanout histogram
system.tol2bus.snoop_fanout::1                     23     14.74%    100.00% # Request fanout histogram
system.tol2bus.snoop_fanout::2                      0      0.00%    100.00% # Request fanout histogram
system.tol2bus.snoop_fanout::overflows              0      0.00%    100.00% # Request fanout histogram
system.tol2bus.snoop_fanout::min_value              0                       # Request fanout histogram
system.tol2bus.snoop_fanout::max_value              1                       # Request fanout histogram
system.tol2bus.snoop_fanout::total                156                       # Request fanout histogram
system.tol2bus.power_state.pwrStateResidencyTicks::UNDEFINED     66609000                       # Cumulative time (in ticks) in various power states
system.tol2bus.reqLayer0.occupancy            2692000                       # Layer occupancy (ticks)
system.tol2bus.reqLayer0.utilization              4.0                       # Layer utilization (%)
system.tol2bus.respLayer0.occupancy           6695000                       # Layer occupancy (ticks)
system.tol2bus.respLayer0.utilization            10.1                       # Layer utilization (%)
system.tol2bus.respLayer1.occupancy           3446998                       # Layer occupancy (ticks)
system.tol2bus.respLayer1.utilization             5.2                       # Layer utilization (%)
system.voltage_domain.voltage                       1                       # Voltage in Volts

---------- End Simulation Statistics   ----------
