
---------- Begin Simulation Statistics ----------
final_tick                                80440060500                       # Number of ticks from beginning of simulation (restored from checkpoints and never reset)
host_inst_rate                                 411348                       # Simulator instruction rate (inst/s)
host_mem_usage                                 677020                       # Number of bytes of host memory used
host_op_rate                                   412155                       # Simulator op (including micro ops) rate (op/s)
host_seconds                                   243.10                       # Real time elapsed on the host
host_tick_rate                              330888360                       # Simulator tick rate (ticks/s)
sim_freq                                 1000000000000                       # Frequency of simulated ticks
sim_insts                                   100000001                       # Number of instructions simulated
sim_ops                                     100196356                       # Number of ops (including micro ops) simulated
sim_seconds                                  0.080440                       # Number of seconds simulated
sim_ticks                                 80440060500                       # Number of ticks simulated
system.cpu.committedInsts                   100000001                       # Number of instructions committed
system.cpu.committedOps                     100196356                       # Number of ops (including micro ops) committed
system.cpu.cpi                               1.608801                       # CPI: cycles per instruction
system.cpu.discardedOps                        189351                       # Number of ops (including micro ops) which were discarded before commit
system.cpu.idleCycles                        28438617                       # Total number of cycles that the object has spent stopped
system.cpu.ipc                               0.621581                       # IPC: instructions per cycle
system.cpu.numCycles                        160880121                       # number of cpu cycles simulated
system.cpu.numFetchSuspends                         0                       # Number of times Execute suspended instruction fetching
system.cpu.numWorkItemsCompleted                    0                       # number of work items this cpu completed
system.cpu.numWorkItemsStarted                      0                       # number of work items this cpu started
system.cpu.op_class_0::No_OpClass                   0      0.00%      0.00% # Class of committed instruction
system.cpu.op_class_0::IntAlu                46526863     46.44%     46.44% # Class of committed instruction
system.cpu.op_class_0::IntMult                  20723      0.02%     46.46% # Class of committed instruction
system.cpu.op_class_0::IntDiv                       0      0.00%     46.46% # Class of committed instruction
system.cpu.op_class_0::FloatAdd                     0      0.00%     46.46% # Class of committed instruction
system.cpu.op_class_0::FloatCmp                     0      0.00%     46.46% # Class of committed instruction
system.cpu.op_class_0::FloatCvt                     0      0.00%     46.46% # Class of committed instruction
system.cpu.op_class_0::FloatMult                    0      0.00%     46.46% # Class of committed instruction
system.cpu.op_class_0::FloatMultAcc                 0      0.00%     46.46% # Class of committed instruction
system.cpu.op_class_0::FloatDiv                     0      0.00%     46.46% # Class of committed instruction
system.cpu.op_class_0::FloatMisc                    0      0.00%     46.46% # Class of committed instruction
system.cpu.op_class_0::FloatSqrt                    0      0.00%     46.46% # Class of committed instruction
system.cpu.op_class_0::SimdAdd                      0      0.00%     46.46% # Class of committed instruction
system.cpu.op_class_0::SimdAddAcc                   0      0.00%     46.46% # Class of committed instruction
system.cpu.op_class_0::SimdAlu                      0      0.00%     46.46% # Class of committed instruction
system.cpu.op_class_0::SimdCmp                      0      0.00%     46.46% # Class of committed instruction
system.cpu.op_class_0::SimdCvt                      0      0.00%     46.46% # Class of committed instruction
system.cpu.op_class_0::SimdMisc                     0      0.00%     46.46% # Class of committed instruction
system.cpu.op_class_0::SimdMult                     0      0.00%     46.46% # Class of committed instruction
system.cpu.op_class_0::SimdMultAcc                  0      0.00%     46.46% # Class of committed instruction
system.cpu.op_class_0::SimdShift                    0      0.00%     46.46% # Class of committed instruction
system.cpu.op_class_0::SimdShiftAcc                 0      0.00%     46.46% # Class of committed instruction
system.cpu.op_class_0::SimdDiv                      0      0.00%     46.46% # Class of committed instruction
system.cpu.op_class_0::SimdSqrt                     0      0.00%     46.46% # Class of committed instruction
system.cpu.op_class_0::SimdFloatAdd                 0      0.00%     46.46% # Class of committed instruction
system.cpu.op_class_0::SimdFloatAlu                 0      0.00%     46.46% # Class of committed instruction
system.cpu.op_class_0::SimdFloatCmp                 0      0.00%     46.46% # Class of committed instruction
system.cpu.op_class_0::SimdFloatCvt                 0      0.00%     46.46% # Class of committed instruction
system.cpu.op_class_0::SimdFloatDiv                 0      0.00%     46.46% # Class of committed instruction
system.cpu.op_class_0::SimdFloatMisc               18      0.00%     46.46% # Class of committed instruction
system.cpu.op_class_0::SimdFloatMult                0      0.00%     46.46% # Class of committed instruction
system.cpu.op_class_0::SimdFloatMultAcc             0      0.00%     46.46% # Class of committed instruction
system.cpu.op_class_0::SimdFloatSqrt                0      0.00%     46.46% # Class of committed instruction
system.cpu.op_class_0::SimdReduceAdd                0      0.00%     46.46% # Class of committed instruction
system.cpu.op_class_0::SimdReduceAlu                0      0.00%     46.46% # Class of committed instruction
system.cpu.op_class_0::SimdReduceCmp                0      0.00%     46.46% # Class of committed instruction
system.cpu.op_class_0::SimdFloatReduceAdd            0      0.00%     46.46% # Class of committed instruction
system.cpu.op_class_0::SimdFloatReduceCmp            0      0.00%     46.46% # Class of committed instruction
system.cpu.op_class_0::SimdAes                      0      0.00%     46.46% # Class of committed instruction
system.cpu.op_class_0::SimdAesMix                   0      0.00%     46.46% # Class of committed instruction
system.cpu.op_class_0::SimdSha1Hash                 0      0.00%     46.46% # Class of committed instruction
system.cpu.op_class_0::SimdSha1Hash2                0      0.00%     46.46% # Class of committed instruction
system.cpu.op_class_0::SimdSha256Hash               0      0.00%     46.46% # Class of committed instruction
system.cpu.op_class_0::SimdSha256Hash2              0      0.00%     46.46% # Class of committed instruction
system.cpu.op_class_0::SimdShaSigma2                0      0.00%     46.46% # Class of committed instruction
system.cpu.op_class_0::SimdShaSigma3                0      0.00%     46.46% # Class of committed instruction
system.cpu.op_class_0::SimdPredAlu                  0      0.00%     46.46% # Class of committed instruction
system.cpu.op_class_0::MemRead               42690537     42.61%     89.06% # Class of committed instruction
system.cpu.op_class_0::MemWrite              10958215     10.94%    100.00% # Class of committed instruction
system.cpu.op_class_0::FloatMemRead                 0      0.00%    100.00% # Class of committed instruction
system.cpu.op_class_0::FloatMemWrite                0      0.00%    100.00% # Class of committed instruction
system.cpu.op_class_0::IprAccess                    0      0.00%    100.00% # Class of committed instruction
system.cpu.op_class_0::InstPrefetch                 0      0.00%    100.00% # Class of committed instruction
system.cpu.op_class_0::total                100196356                       # Class of committed instruction
system.cpu.tickCycles                       132441504                       # Number of cycles that the object actually ticked
system.cpu.workload.numSyscalls                    85                       # Number of system calls
system.membus.snoop_filter.hit_multi_requests            0                       # Number of requests hitting in the snoop filter with multiple (>1) holders of the requested data.
system.membus.snoop_filter.hit_multi_snoops            0                       # Number of snoops hitting in the snoop filter with multiple (>1) holders of the requested data.
system.membus.snoop_filter.hit_single_requests       113863                       # Number of requests hitting in the snoop filter with a single holder of the requested data.
system.membus.snoop_filter.hit_single_snoops            0                       # Number of snoops hitting in the snoop filter with a single holder of the requested data.
system.membus.snoop_filter.tot_requests        293788                       # Total number of requests made to the snoop filter.
system.membus.snoop_filter.tot_snoops               0                       # Total number of snoops made to the snoop filter.
system.tol2bus.snoop_filter.hit_multi_requests           60                       # Number of requests hitting in the snoop filter with multiple (>1) holders of the requested data.
system.tol2bus.snoop_filter.hit_multi_snoops            0                       # Number of snoops hitting in the snoop filter with multiple (>1) holders of the requested data.
system.tol2bus.snoop_filter.hit_single_requests       474344                       # Number of requests hitting in the snoop filter with a single holder of the requested data.
system.tol2bus.snoop_filter.hit_single_snoops          538                       # Number of snoops hitting in the snoop filter with a single holder of the requested data.
system.tol2bus.snoop_filter.tot_requests       951405                       # Total number of requests made to the snoop filter.
system.tol2bus.snoop_filter.tot_snoops            538                       # Total number of snoops made to the snoop filter.
system.clk_domain.clock                          1000                       # Clock period in ticks
system.cpu.branchPred.lookups                 4485912                       # Number of BP lookups
system.cpu.branchPred.condPredicted           3735614                       # Number of conditional branches predicted
system.cpu.branchPred.condIncorrect             80999                       # Number of conditional branches incorrect
system.cpu.branchPred.BTBLookups              2103790                       # Number of BTB lookups
system.cpu.branchPred.BTBHits                 2101790                       # Number of BTB hits
system.cpu.branchPred.BTBHitPct             99.904933                       # BTB Hit Percentage
system.cpu.branchPred.RASUsed                   65379                       # Number of times the RAS was used to get a target.
system.cpu.branchPred.RASIncorrect                 14                       # Number of incorrect RAS predictions.
system.cpu.branchPred.indirectLookups             693                       # Number of indirect predictor lookups.
system.cpu.branchPred.indirectHits                288                       # Number of indirect target hits.
system.cpu.branchPred.indirectMisses              405                       # Number of indirect misses.
system.cpu.branchPred.indirectMispredicted          171                       # Number of mispredicted indirect branches.
system.cpu.dcache.demand_hits::.cpu.data     51537229                       # number of demand (read+write) hits
system.cpu.dcache.demand_hits::total         51537229                       # number of demand (read+write) hits
system.cpu.dcache.overall_hits::.cpu.data     51537739                       # number of overall hits
system.cpu.dcache.overall_hits::total        51537739                       # number of overall hits
system.cpu.dcache.demand_misses::.cpu.data       530921                       # number of demand (read+write) misses
system.cpu.dcache.demand_misses::total         530921                       # number of demand (read+write) misses
system.cpu.dcache.overall_misses::.cpu.data       538830                       # number of overall misses
system.cpu.dcache.overall_misses::total        538830                       # number of overall misses
system.cpu.dcache.demand_miss_latency::.cpu.data  20076245000                       # number of demand (read+write) miss cycles
system.cpu.dcache.demand_miss_latency::total  20076245000                       # number of demand (read+write) miss cycles
system.cpu.dcache.overall_miss_latency::.cpu.data  20076245000                       # number of overall miss cycles
system.cpu.dcache.overall_miss_latency::total  20076245000                       # number of overall miss cycles
system.cpu.dcache.demand_accesses::.cpu.data     52068150                       # number of demand (read+write) accesses
system.cpu.dcache.demand_accesses::total     52068150                       # number of demand (read+write) accesses
system.cpu.dcache.overall_accesses::.cpu.data     52076569                       # number of overall (read+write) accesses
system.cpu.dcache.overall_accesses::total     52076569                       # number of overall (read+write) accesses
system.cpu.dcache.demand_miss_rate::.cpu.data     0.010197                       # miss rate for demand accesses
system.cpu.dcache.demand_miss_rate::total     0.010197                       # miss rate for demand accesses
system.cpu.dcache.overall_miss_rate::.cpu.data     0.010347                       # miss rate for overall accesses
system.cpu.dcache.overall_miss_rate::total     0.010347                       # miss rate for overall accesses
system.cpu.dcache.demand_avg_miss_latency::.cpu.data 37813.996809                       # average overall miss latency
system.cpu.dcache.demand_avg_miss_latency::total 37813.996809                       # average overall miss latency
system.cpu.dcache.overall_avg_miss_latency::.cpu.data 37258.959226                       # average overall miss latency
system.cpu.dcache.overall_avg_miss_latency::total 37258.959226                       # average overall miss latency
system.cpu.dcache.blocked_cycles::no_mshrs       192270                       # number of cycles access was blocked
system.cpu.dcache.blocked_cycles::no_targets            0                       # number of cycles access was blocked
system.cpu.dcache.blocked::no_mshrs              3321                       # number of cycles access was blocked
system.cpu.dcache.blocked::no_targets               0                       # number of cycles access was blocked
system.cpu.dcache.avg_blocked_cycles::no_mshrs    57.895212                       # average number of cycles each access was blocked
system.cpu.dcache.avg_blocked_cycles::no_targets          nan                       # average number of cycles each access was blocked
system.cpu.dcache.writebacks::.writebacks       420125                       # number of writebacks
system.cpu.dcache.writebacks::total            420125                       # number of writebacks
system.cpu.dcache.demand_mshr_hits::.cpu.data        62438                       # number of demand (read+write) MSHR hits
system.cpu.dcache.demand_mshr_hits::total        62438                       # number of demand (read+write) MSHR hits
system.cpu.dcache.overall_mshr_hits::.cpu.data        62438                       # number of overall MSHR hits
system.cpu.dcache.overall_mshr_hits::total        62438                       # number of overall MSHR hits
system.cpu.dcache.demand_mshr_misses::.cpu.data       468483                       # number of demand (read+write) MSHR misses
system.cpu.dcache.demand_mshr_misses::total       468483                       # number of demand (read+write) MSHR misses
system.cpu.dcache.overall_mshr_misses::.cpu.data       476388                       # number of overall MSHR misses
system.cpu.dcache.overall_mshr_misses::total       476388                       # number of overall MSHR misses
system.cpu.dcache.demand_mshr_miss_latency::.cpu.data  18005812500                       # number of demand (read+write) MSHR miss cycles
system.cpu.dcache.demand_mshr_miss_latency::total  18005812500                       # number of demand (read+write) MSHR miss cycles
system.cpu.dcache.overall_mshr_miss_latency::.cpu.data  18660576499                       # number of overall MSHR miss cycles
system.cpu.dcache.overall_mshr_miss_latency::total  18660576499                       # number of overall MSHR miss cycles
system.cpu.dcache.demand_mshr_miss_rate::.cpu.data     0.008997                       # mshr miss rate for demand accesses
system.cpu.dcache.demand_mshr_miss_rate::total     0.008997                       # mshr miss rate for demand accesses
system.cpu.dcache.overall_mshr_miss_rate::.cpu.data     0.009148                       # mshr miss rate for overall accesses
system.cpu.dcache.overall_mshr_miss_rate::total     0.009148                       # mshr miss rate for overall accesses
system.cpu.dcache.demand_avg_mshr_miss_latency::.cpu.data 38434.292173                       # average overall mshr miss latency
system.cpu.dcache.demand_avg_mshr_miss_latency::total 38434.292173                       # average overall mshr miss latency
system.cpu.dcache.overall_avg_mshr_miss_latency::.cpu.data 39170.962533                       # average overall mshr miss latency
system.cpu.dcache.overall_avg_mshr_miss_latency::total 39170.962533                       # average overall mshr miss latency
system.cpu.dcache.replacements                 474340                       # number of replacements
system.cpu.dcache.ReadReq_hits::.cpu.data     40877909                       # number of ReadReq hits
system.cpu.dcache.ReadReq_hits::total        40877909                       # number of ReadReq hits
system.cpu.dcache.ReadReq_misses::.cpu.data       241159                       # number of ReadReq misses
system.cpu.dcache.ReadReq_misses::total        241159                       # number of ReadReq misses
system.cpu.dcache.ReadReq_miss_latency::.cpu.data   6019738500                       # number of ReadReq miss cycles
system.cpu.dcache.ReadReq_miss_latency::total   6019738500                       # number of ReadReq miss cycles
system.cpu.dcache.ReadReq_accesses::.cpu.data     41119068                       # number of ReadReq accesses(hits+misses)
system.cpu.dcache.ReadReq_accesses::total     41119068                       # number of ReadReq accesses(hits+misses)
system.cpu.dcache.ReadReq_miss_rate::.cpu.data     0.005865                       # miss rate for ReadReq accesses
system.cpu.dcache.ReadReq_miss_rate::total     0.005865                       # miss rate for ReadReq accesses
system.cpu.dcache.ReadReq_avg_miss_latency::.cpu.data 24961.699543                       # average ReadReq miss latency
system.cpu.dcache.ReadReq_avg_miss_latency::total 24961.699543                       # average ReadReq miss latency
system.cpu.dcache.ReadReq_mshr_hits::.cpu.data          691                       # number of ReadReq MSHR hits
system.cpu.dcache.ReadReq_mshr_hits::total          691                       # number of ReadReq MSHR hits
system.cpu.dcache.ReadReq_mshr_misses::.cpu.data       240468                       # number of ReadReq MSHR misses
system.cpu.dcache.ReadReq_mshr_misses::total       240468                       # number of ReadReq MSHR misses
system.cpu.dcache.ReadReq_mshr_miss_latency::.cpu.data   5754062000                       # number of ReadReq MSHR miss cycles
system.cpu.dcache.ReadReq_mshr_miss_latency::total   5754062000                       # number of ReadReq MSHR miss cycles
system.cpu.dcache.ReadReq_mshr_miss_rate::.cpu.data     0.005848                       # mshr miss rate for ReadReq accesses
system.cpu.dcache.ReadReq_mshr_miss_rate::total     0.005848                       # mshr miss rate for ReadReq accesses
system.cpu.dcache.ReadReq_avg_mshr_miss_latency::.cpu.data 23928.597568                       # average ReadReq mshr miss latency
system.cpu.dcache.ReadReq_avg_mshr_miss_latency::total 23928.597568                       # average ReadReq mshr miss latency
system.cpu.dcache.WriteReq_hits::.cpu.data     10659320                       # number of WriteReq hits
system.cpu.dcache.WriteReq_hits::total       10659320                       # number of WriteReq hits
system.cpu.dcache.WriteReq_misses::.cpu.data       289762                       # number of WriteReq misses
system.cpu.dcache.WriteReq_misses::total       289762                       # number of WriteReq misses
system.cpu.dcache.WriteReq_miss_latency::.cpu.data  14056506500                       # number of WriteReq miss cycles
system.cpu.dcache.WriteReq_miss_latency::total  14056506500                       # number of WriteReq miss cycles
system.cpu.dcache.WriteReq_accesses::.cpu.data     10949082                       # number of WriteReq accesses(hits+misses)
system.cpu.dcache.WriteReq_accesses::total     10949082                       # number of WriteReq accesses(hits+misses)
system.cpu.dcache.WriteReq_miss_rate::.cpu.data     0.026465                       # miss rate for WriteReq accesses
system.cpu.dcache.WriteReq_miss_rate::total     0.026465                       # miss rate for WriteReq accesses
system.cpu.dcache.WriteReq_avg_miss_latency::.cpu.data 48510.524154                       # average WriteReq miss latency
system.cpu.dcache.WriteReq_avg_miss_latency::total 48510.524154                       # average WriteReq miss latency
system.cpu.dcache.WriteReq_mshr_hits::.cpu.data        61747                       # number of WriteReq MSHR hits
system.cpu.dcache.WriteReq_mshr_hits::total        61747                       # number of WriteReq MSHR hits
system.cpu.dcache.WriteReq_mshr_misses::.cpu.data       228015                       # number of WriteReq MSHR misses
system.cpu.dcache.WriteReq_mshr_misses::total       228015                       # number of WriteReq MSHR misses
system.cpu.dcache.WriteReq_mshr_miss_latency::.cpu.data  12251750500                       # number of WriteReq MSHR miss cycles
system.cpu.dcache.WriteReq_mshr_miss_latency::total  12251750500                       # number of WriteReq MSHR miss cycles
system.cpu.dcache.WriteReq_mshr_miss_rate::.cpu.data     0.020825                       # mshr miss rate for WriteReq accesses
system.cpu.dcache.WriteReq_mshr_miss_rate::total     0.020825                       # mshr miss rate for WriteReq accesses
system.cpu.dcache.WriteReq_avg_mshr_miss_latency::.cpu.data 53732.212793                       # average WriteReq mshr miss latency
system.cpu.dcache.WriteReq_avg_mshr_miss_latency::total 53732.212793                       # average WriteReq mshr miss latency
system.cpu.dcache.SoftPFReq_hits::.cpu.data          510                       # number of SoftPFReq hits
system.cpu.dcache.SoftPFReq_hits::total           510                       # number of SoftPFReq hits
system.cpu.dcache.SoftPFReq_misses::.cpu.data         7909                       # number of SoftPFReq misses
system.cpu.dcache.SoftPFReq_misses::total         7909                       # number of SoftPFReq misses
system.cpu.dcache.SoftPFReq_accesses::.cpu.data         8419                       # number of SoftPFReq accesses(hits+misses)
system.cpu.dcache.SoftPFReq_accesses::total         8419                       # number of SoftPFReq accesses(hits+misses)
system.cpu.dcache.SoftPFReq_miss_rate::.cpu.data     0.939423                       # miss rate for SoftPFReq accesses
system.cpu.dcache.SoftPFReq_miss_rate::total     0.939423                       # miss rate for SoftPFReq accesses
system.cpu.dcache.SoftPFReq_mshr_misses::.cpu.data         7905                       # number of SoftPFReq MSHR misses
system.cpu.dcache.SoftPFReq_mshr_misses::total         7905                       # number of SoftPFReq MSHR misses
system.cpu.dcache.SoftPFReq_mshr_miss_latency::.cpu.data    654763999                       # number of SoftPFReq MSHR miss cycles
system.cpu.dcache.SoftPFReq_mshr_miss_latency::total    654763999                       # number of SoftPFReq MSHR miss cycles
system.cpu.dcache.SoftPFReq_mshr_miss_rate::.cpu.data     0.938948                       # mshr miss rate for SoftPFReq accesses
system.cpu.dcache.SoftPFReq_mshr_miss_rate::total     0.938948                       # mshr miss rate for SoftPFReq accesses
system.cpu.dcache.SoftPFReq_avg_mshr_miss_latency::.cpu.data 82829.095383                       # average SoftPFReq mshr miss latency
system.cpu.dcache.SoftPFReq_avg_mshr_miss_latency::total 82829.095383                       # average SoftPFReq mshr miss latency
system.cpu.dcache.LoadLockedReq_hits::.cpu.data           38                       # number of LoadLockedReq hits
system.cpu.dcache.LoadLockedReq_hits::total           38                       # number of LoadLockedReq hits
system.cpu.dcache.LoadLockedReq_accesses::.cpu.data           38                       # number of LoadLockedReq accesses(hits+misses)
system.cpu.dcache.LoadLockedReq_accesses::total           38                       # number of LoadLockedReq accesses(hits+misses)
system.cpu.dcache.StoreCondReq_hits::.cpu.data           38                       # number of StoreCondReq hits
system.cpu.dcache.StoreCondReq_hits::total           38                       # number of StoreCondReq hits
system.cpu.dcache.StoreCondReq_accesses::.cpu.data           38                       # number of StoreCondReq accesses(hits+misses)
system.cpu.dcache.StoreCondReq_accesses::total           38                       # number of StoreCondReq accesses(hits+misses)
system.cpu.dcache.power_state.pwrStateResidencyTicks::UNDEFINED  80440060500                       # Cumulative time (in ticks) in various power states
system.cpu.dcache.tags.tagsinuse          2010.970700                       # Cycle average of tags in use
system.cpu.dcache.tags.total_refs            52014203                       # Total number of references to valid blocks.
system.cpu.dcache.tags.sampled_refs            476388                       # Sample count of references to valid blocks.
system.cpu.dcache.tags.avg_refs            109.184537                       # Average number of references to valid blocks.
system.cpu.dcache.tags.warmup_cycle            176500                       # Cycle when the warmup percentage was hit.
system.cpu.dcache.tags.occ_blocks::.cpu.data  2010.970700                       # Average occupied blocks per requestor
system.cpu.dcache.tags.occ_percent::.cpu.data     0.981919                       # Average percentage of cache occupancy
system.cpu.dcache.tags.occ_percent::total     0.981919                       # Average percentage of cache occupancy
system.cpu.dcache.tags.occ_task_id_blocks::1024         2048                       # Occupied blocks per task id
system.cpu.dcache.tags.age_task_id_blocks_1024::0          147                       # Occupied blocks per task id
system.cpu.dcache.tags.age_task_id_blocks_1024::1          717                       # Occupied blocks per task id
system.cpu.dcache.tags.age_task_id_blocks_1024::2         1160                       # Occupied blocks per task id
system.cpu.dcache.tags.age_task_id_blocks_1024::3           22                       # Occupied blocks per task id
system.cpu.dcache.tags.age_task_id_blocks_1024::4            2                       # Occupied blocks per task id
system.cpu.dcache.tags.occ_task_id_percent::1024            1                       # Percentage of cache occupancy per task id
system.cpu.dcache.tags.tag_accesses         417089548                       # Number of tag accesses
system.cpu.dcache.tags.data_accesses        417089548                       # Number of data accesses
system.cpu.dcache.tags.power_state.pwrStateResidencyTicks::UNDEFINED  80440060500                       # Cumulative time (in ticks) in various power states
system.cpu.dtb.instHits                             0                       # ITB inst hits
system.cpu.dtb.instMisses                           0                       # ITB inst misses
system.cpu.dtb.readHits                             0                       # DTB read hits
system.cpu.dtb.readMisses                           0                       # DTB read misses
system.cpu.dtb.writeHits                            0                       # DTB write hits
system.cpu.dtb.writeMisses                          0                       # DTB write misses
system.cpu.dtb.inserts                              0                       # Number of times an entry is inserted into the TLB
system.cpu.dtb.flushTlb                             0                       # Number of times complete TLB was flushed
system.cpu.dtb.flushTlbMva                          0                       # Number of times TLB was flushed by MVA
system.cpu.dtb.flushTlbMvaAsid                      0                       # Number of times TLB was flushed by MVA & ASID
system.cpu.dtb.flushTlbAsid                         0                       # Number of times TLB was flushed by ASID
system.cpu.dtb.flushedEntries                       0                       # Number of entries that have been flushed from TLB
system.cpu.dtb.alignFaults                          0                       # Number of TLB faults due to alignment restrictions
system.cpu.dtb.prefetchFaults                       0                       # Number of TLB faults due to prefetch
system.cpu.dtb.domainFaults                         0                       # Number of TLB faults due to domain restrictions
system.cpu.dtb.permsFaults                          0                       # Number of TLB faults due to permissions restrictions
system.cpu.dtb.readAccesses                         0                       # DTB read accesses
system.cpu.dtb.writeAccesses                        0                       # DTB write accesses
system.cpu.dtb.instAccesses                         0                       # ITB inst accesses
system.cpu.dtb.hits                                 0                       # Total TLB (inst and data) hits
system.cpu.dtb.misses                               0                       # Total TLB (inst and data) misses
system.cpu.dtb.accesses                             0                       # Total TLB (inst and data) accesses
system.cpu.dtb.stage2_mmu.stage2_tlb.instHits            0                       # ITB inst hits
system.cpu.dtb.stage2_mmu.stage2_tlb.instMisses            0                       # ITB inst misses
system.cpu.dtb.stage2_mmu.stage2_tlb.readHits            0                       # DTB read hits
system.cpu.dtb.stage2_mmu.stage2_tlb.readMisses            0                       # DTB read misses
system.cpu.dtb.stage2_mmu.stage2_tlb.writeHits            0                       # DTB write hits
system.cpu.dtb.stage2_mmu.stage2_tlb.writeMisses            0                       # DTB write misses
system.cpu.dtb.stage2_mmu.stage2_tlb.inserts            0                       # Number of times an entry is inserted into the TLB
system.cpu.dtb.stage2_mmu.stage2_tlb.flushTlb            0                       # Number of times complete TLB was flushed
system.cpu.dtb.stage2_mmu.stage2_tlb.flushTlbMva            0                       # Number of times TLB was flushed by MVA
system.cpu.dtb.stage2_mmu.stage2_tlb.flushTlbMvaAsid            0                       # Number of times TLB was flushed by MVA & ASID
system.cpu.dtb.stage2_mmu.stage2_tlb.flushTlbAsid            0                       # Number of times TLB was flushed by ASID
system.cpu.dtb.stage2_mmu.stage2_tlb.flushedEntries            0                       # Number of entries that have been flushed from TLB
system.cpu.dtb.stage2_mmu.stage2_tlb.alignFaults            0                       # Number of TLB faults due to alignment restrictions
system.cpu.dtb.stage2_mmu.stage2_tlb.prefetchFaults            0                       # Number of TLB faults due to prefetch
system.cpu.dtb.stage2_mmu.stage2_tlb.domainFaults            0                       # Number of TLB faults due to domain restrictions
system.cpu.dtb.stage2_mmu.stage2_tlb.permsFaults            0                       # Number of TLB faults due to permissions restrictions
system.cpu.dtb.stage2_mmu.stage2_tlb.readAccesses            0                       # DTB read accesses
system.cpu.dtb.stage2_mmu.stage2_tlb.writeAccesses            0                       # DTB write accesses
system.cpu.dtb.stage2_mmu.stage2_tlb.instAccesses            0                       # ITB inst accesses
system.cpu.dtb.stage2_mmu.stage2_tlb.hits            0                       # Total TLB (inst and data) hits
system.cpu.dtb.stage2_mmu.stage2_tlb.misses            0                       # Total TLB (inst and data) misses
system.cpu.dtb.stage2_mmu.stage2_tlb.accesses            0                       # Total TLB (inst and data) accesses
system.cpu.dtb.stage2_mmu.stage2_tlb.walker.walks            0                       # Table walker walks requested
system.cpu.dtb.stage2_mmu.stage2_tlb.walker.requestOrigin_Requested::Data            0                       # Table walker requests started/completed, data/inst
system.cpu.dtb.stage2_mmu.stage2_tlb.walker.requestOrigin_Requested::Inst            0                       # Table walker requests started/completed, data/inst
system.cpu.dtb.stage2_mmu.stage2_tlb.walker.requestOrigin_Requested::total            0                       # Table walker requests started/completed, data/inst
system.cpu.dtb.stage2_mmu.stage2_tlb.walker.requestOrigin_Completed::Data            0                       # Table walker requests started/completed, data/inst
system.cpu.dtb.stage2_mmu.stage2_tlb.walker.requestOrigin_Completed::Inst            0                       # Table walker requests started/completed, data/inst
system.cpu.dtb.stage2_mmu.stage2_tlb.walker.requestOrigin_Completed::total            0                       # Table walker requests started/completed, data/inst
system.cpu.dtb.stage2_mmu.stage2_tlb.walker.requestOrigin::total            0                       # Table walker requests started/completed, data/inst
system.cpu.dtb.stage2_mmu.stage2_tlb.walker.power_state.pwrStateResidencyTicks::UNDEFINED  80440060500                       # Cumulative time (in ticks) in various power states
system.cpu.dtb.walker.walks                         0                       # Table walker walks requested
system.cpu.dtb.walker.requestOrigin_Requested::Data            0                       # Table walker requests started/completed, data/inst
system.cpu.dtb.walker.requestOrigin_Requested::Inst            0                       # Table walker requests started/completed, data/inst
system.cpu.dtb.walker.requestOrigin_Requested::total            0                       # Table walker requests started/completed, data/inst
system.cpu.dtb.walker.requestOrigin_Completed::Data            0                       # Table walker requests started/completed, data/inst
system.cpu.dtb.walker.requestOrigin_Completed::Inst            0                       # Table walker requests started/completed, data/inst
system.cpu.dtb.walker.requestOrigin_Completed::total            0                       # Table walker requests started/completed, data/inst
system.cpu.dtb.walker.requestOrigin::total            0                       # Table walker requests started/completed, data/inst
system.cpu.dtb.walker.power_state.pwrStateResidencyTicks::UNDEFINED  80440060500                       # Cumulative time (in ticks) in various power states
system.cpu.fetch2.intInstructions            42685780                       # Number of integer instructions successfully decoded
system.cpu.fetch2.fpInstructions                    0                       # Number of floating point instructions successfully decoded
system.cpu.fetch2.vecInstructions                   0                       # Number of SIMD instructions successfully decoded
system.cpu.fetch2.loadInstructions           43474829                       # Number of memory load instructions successfully decoded
system.cpu.fetch2.storeInstructions          11024780                       # Number of memory store instructions successfully decoded
system.cpu.fetch2.amoInstructions                   0                       # Number of memory atomic instructions successfully decoded
system.cpu.icache.demand_hits::.cpu.inst     10277744                       # number of demand (read+write) hits
system.cpu.icache.demand_hits::total         10277744                       # number of demand (read+write) hits
system.cpu.icache.overall_hits::.cpu.inst     10277744                       # number of overall hits
system.cpu.icache.overall_hits::total        10277744                       # number of overall hits
system.cpu.icache.demand_misses::.cpu.inst          675                       # number of demand (read+write) misses
system.cpu.icache.demand_misses::total            675                       # number of demand (read+write) misses
system.cpu.icache.overall_misses::.cpu.inst          675                       # number of overall misses
system.cpu.icache.overall_misses::total           675                       # number of overall misses
system.cpu.icache.demand_miss_latency::.cpu.inst     52562000                       # number of demand (read+write) miss cycles
system.cpu.icache.demand_miss_latency::total     52562000                       # number of demand (read+write) miss cycles
system.cpu.icache.overall_miss_latency::.cpu.inst     52562000                       # number of overall miss cycles
system.cpu.icache.overall_miss_latency::total     52562000                       # number of overall miss cycles
system.cpu.icache.demand_accesses::.cpu.inst     10278419                       # number of demand (read+write) accesses
system.cpu.icache.demand_accesses::total     10278419                       # number of demand (read+write) accesses
system.cpu.icache.overall_accesses::.cpu.inst     10278419                       # number of overall (read+write) accesses
system.cpu.icache.overall_accesses::total     10278419                       # number of overall (read+write) accesses
system.cpu.icache.demand_miss_rate::.cpu.inst     0.000066                       # miss rate for demand accesses
system.cpu.icache.demand_miss_rate::total     0.000066                       # miss rate for demand accesses
system.cpu.icache.overall_miss_rate::.cpu.inst     0.000066                       # miss rate for overall accesses
system.cpu.icache.overall_miss_rate::total     0.000066                       # miss rate for overall accesses
system.cpu.icache.demand_avg_miss_latency::.cpu.inst 77869.629630                       # average overall miss latency
system.cpu.icache.demand_avg_miss_latency::total 77869.629630                       # average overall miss latency
system.cpu.icache.overall_avg_miss_latency::.cpu.inst 77869.629630                       # average overall miss latency
system.cpu.icache.overall_avg_miss_latency::total 77869.629630                       # average overall miss latency
system.cpu.icache.blocked_cycles::no_mshrs            0                       # number of cycles access was blocked
system.cpu.icache.blocked_cycles::no_targets            0                       # number of cycles access was blocked
system.cpu.icache.blocked::no_mshrs                 0                       # number of cycles access was blocked
system.cpu.icache.blocked::no_targets               0                       # number of cycles access was blocked
system.cpu.icache.avg_blocked_cycles::no_mshrs          nan                       # average number of cycles each access was blocked
system.cpu.icache.avg_blocked_cycles::no_targets          nan                       # average number of cycles each access was blocked
system.cpu.icache.writebacks::.writebacks            2                       # number of writebacks
system.cpu.icache.writebacks::total                 2                       # number of writebacks
system.cpu.icache.demand_mshr_misses::.cpu.inst          675                       # number of demand (read+write) MSHR misses
system.cpu.icache.demand_mshr_misses::total          675                       # number of demand (read+write) MSHR misses
system.cpu.icache.overall_mshr_misses::.cpu.inst          675                       # number of overall MSHR misses
system.cpu.icache.overall_mshr_misses::total          675                       # number of overall MSHR misses
system.cpu.icache.demand_mshr_miss_latency::.cpu.inst     51887000                       # number of demand (read+write) MSHR miss cycles
system.cpu.icache.demand_mshr_miss_latency::total     51887000                       # number of demand (read+write) MSHR miss cycles
system.cpu.icache.overall_mshr_miss_latency::.cpu.inst     51887000                       # number of overall MSHR miss cycles
system.cpu.icache.overall_mshr_miss_latency::total     51887000                       # number of overall MSHR miss cycles
system.cpu.icache.demand_mshr_miss_rate::.cpu.inst     0.000066                       # mshr miss rate for demand accesses
system.cpu.icache.demand_mshr_miss_rate::total     0.000066                       # mshr miss rate for demand accesses
system.cpu.icache.overall_mshr_miss_rate::.cpu.inst     0.000066                       # mshr miss rate for overall accesses
system.cpu.icache.overall_mshr_miss_rate::total     0.000066                       # mshr miss rate for overall accesses
system.cpu.icache.demand_avg_mshr_miss_latency::.cpu.inst 76869.629630                       # average overall mshr miss latency
system.cpu.icache.demand_avg_mshr_miss_latency::total 76869.629630                       # average overall mshr miss latency
system.cpu.icache.overall_avg_mshr_miss_latency::.cpu.inst 76869.629630                       # average overall mshr miss latency
system.cpu.icache.overall_avg_mshr_miss_latency::total 76869.629630                       # average overall mshr miss latency
system.cpu.icache.replacements                      2                       # number of replacements
system.cpu.icache.ReadReq_hits::.cpu.inst     10277744                       # number of ReadReq hits
system.cpu.icache.ReadReq_hits::total        10277744                       # number of ReadReq hits
system.cpu.icache.ReadReq_misses::.cpu.inst          675                       # number of ReadReq misses
system.cpu.icache.ReadReq_misses::total           675                       # number of ReadReq misses
system.cpu.icache.ReadReq_miss_latency::.cpu.inst     52562000                       # number of ReadReq miss cycles
system.cpu.icache.ReadReq_miss_latency::total     52562000                       # number of ReadReq miss cycles
system.cpu.icache.ReadReq_accesses::.cpu.inst     10278419                       # number of ReadReq accesses(hits+misses)
system.cpu.icache.ReadReq_accesses::total     10278419                       # number of ReadReq accesses(hits+misses)
system.cpu.icache.ReadReq_miss_rate::.cpu.inst     0.000066                       # miss rate for ReadReq accesses
system.cpu.icache.ReadReq_miss_rate::total     0.000066                       # miss rate for ReadReq accesses
system.cpu.icache.ReadReq_avg_miss_latency::.cpu.inst 77869.629630                       # average ReadReq miss latency
system.cpu.icache.ReadReq_avg_miss_latency::total 77869.629630                       # average ReadReq miss latency
system.cpu.icache.ReadReq_mshr_misses::.cpu.inst          675                       # number of ReadReq MSHR misses
system.cpu.icache.ReadReq_mshr_misses::total          675                       # number of ReadReq MSHR misses
system.cpu.icache.ReadReq_mshr_miss_latency::.cpu.inst     51887000                       # number of ReadReq MSHR miss cycles
system.cpu.icache.ReadReq_mshr_miss_latency::total     51887000                       # number of ReadReq MSHR miss cycles
system.cpu.icache.ReadReq_mshr_miss_rate::.cpu.inst     0.000066                       # mshr miss rate for ReadReq accesses
system.cpu.icache.ReadReq_mshr_miss_rate::total     0.000066                       # mshr miss rate for ReadReq accesses
system.cpu.icache.ReadReq_avg_mshr_miss_latency::.cpu.inst 76869.629630                       # average ReadReq mshr miss latency
system.cpu.icache.ReadReq_avg_mshr_miss_latency::total 76869.629630                       # average ReadReq mshr miss latency
system.cpu.icache.power_state.pwrStateResidencyTicks::UNDEFINED  80440060500                       # Cumulative time (in ticks) in various power states
system.cpu.icache.tags.tagsinuse           544.201969                       # Cycle average of tags in use
system.cpu.icache.tags.total_refs            10278419                       # Total number of references to valid blocks.
system.cpu.icache.tags.sampled_refs               675                       # Sample count of references to valid blocks.
system.cpu.icache.tags.avg_refs          15227.287407                       # Average number of references to valid blocks.
system.cpu.icache.tags.warmup_cycle             87500                       # Cycle when the warmup percentage was hit.
system.cpu.icache.tags.occ_blocks::.cpu.inst   544.201969                       # Average occupied blocks per requestor
system.cpu.icache.tags.occ_percent::.cpu.inst     0.531447                       # Average percentage of cache occupancy
system.cpu.icache.tags.occ_percent::total     0.531447                       # Average percentage of cache occupancy
system.cpu.icache.tags.occ_task_id_blocks::1024          673                       # Occupied blocks per task id
system.cpu.icache.tags.age_task_id_blocks_1024::3          107                       # Occupied blocks per task id
system.cpu.icache.tags.age_task_id_blocks_1024::4          566                       # Occupied blocks per task id
system.cpu.icache.tags.occ_task_id_percent::1024     0.657227                       # Percentage of cache occupancy per task id
system.cpu.icache.tags.tag_accesses          82228027                       # Number of tag accesses
system.cpu.icache.tags.data_accesses         82228027                       # Number of data accesses
system.cpu.icache.tags.power_state.pwrStateResidencyTicks::UNDEFINED  80440060500                       # Cumulative time (in ticks) in various power states
system.cpu.itb.instHits                             0                       # ITB inst hits
system.cpu.itb.instMisses                           0                       # ITB inst misses
system.cpu.itb.readHits                             0                       # DTB read hits
system.cpu.itb.readMisses                           0                       # DTB read misses
system.cpu.itb.writeHits                            0                       # DTB write hits
system.cpu.itb.writeMisses                          0                       # DTB write misses
system.cpu.itb.inserts                              0                       # Number of times an entry is inserted into the TLB
system.cpu.itb.flushTlb                             0                       # Number of times complete TLB was flushed
system.cpu.itb.flushTlbMva                          0                       # Number of times TLB was flushed by MVA
system.cpu.itb.flushTlbMvaAsid                      0                       # Number of times TLB was flushed by MVA & ASID
system.cpu.itb.flushTlbAsid                         0                       # Number of times TLB was flushed by ASID
system.cpu.itb.flushedEntries                       0                       # Number of entries that have been flushed from TLB
system.cpu.itb.alignFaults                          0                       # Number of TLB faults due to alignment restrictions
system.cpu.itb.prefetchFaults                       0                       # Number of TLB faults due to prefetch
system.cpu.itb.domainFaults                         0                       # Number of TLB faults due to domain restrictions
system.cpu.itb.permsFaults                          0                       # Number of TLB faults due to permissions restrictions
system.cpu.itb.readAccesses                         0                       # DTB read accesses
system.cpu.itb.writeAccesses                        0                       # DTB write accesses
system.cpu.itb.instAccesses                         0                       # ITB inst accesses
system.cpu.itb.hits                                 0                       # Total TLB (inst and data) hits
system.cpu.itb.misses                               0                       # Total TLB (inst and data) misses
system.cpu.itb.accesses                             0                       # Total TLB (inst and data) accesses
system.cpu.itb.stage2_mmu.stage2_tlb.instHits            0                       # ITB inst hits
system.cpu.itb.stage2_mmu.stage2_tlb.instMisses            0                       # ITB inst misses
system.cpu.itb.stage2_mmu.stage2_tlb.readHits            0                       # DTB read hits
system.cpu.itb.stage2_mmu.stage2_tlb.readMisses            0                       # DTB read misses
system.cpu.itb.stage2_mmu.stage2_tlb.writeHits            0                       # DTB write hits
system.cpu.itb.stage2_mmu.stage2_tlb.writeMisses            0                       # DTB write misses
system.cpu.itb.stage2_mmu.stage2_tlb.inserts            0                       # Number of times an entry is inserted into the TLB
system.cpu.itb.stage2_mmu.stage2_tlb.flushTlb            0                       # Number of times complete TLB was flushed
system.cpu.itb.stage2_mmu.stage2_tlb.flushTlbMva            0                       # Number of times TLB was flushed by MVA
system.cpu.itb.stage2_mmu.stage2_tlb.flushTlbMvaAsid            0                       # Number of times TLB was flushed by MVA & ASID
system.cpu.itb.stage2_mmu.stage2_tlb.flushTlbAsid            0                       # Number of times TLB was flushed by ASID
system.cpu.itb.stage2_mmu.stage2_tlb.flushedEntries            0                       # Number of entries that have been flushed from TLB
system.cpu.itb.stage2_mmu.stage2_tlb.alignFaults            0                       # Number of TLB faults due to alignment restrictions
system.cpu.itb.stage2_mmu.stage2_tlb.prefetchFaults            0                       # Number of TLB faults due to prefetch
system.cpu.itb.stage2_mmu.stage2_tlb.domainFaults            0                       # Number of TLB faults due to domain restrictions
system.cpu.itb.stage2_mmu.stage2_tlb.permsFaults            0                       # Number of TLB faults due to permissions restrictions
system.cpu.itb.stage2_mmu.stage2_tlb.readAccesses            0                       # DTB read accesses
system.cpu.itb.stage2_mmu.stage2_tlb.writeAccesses            0                       # DTB write accesses
system.cpu.itb.stage2_mmu.stage2_tlb.instAccesses            0                       # ITB inst accesses
system.cpu.itb.stage2_mmu.stage2_tlb.hits            0                       # Total TLB (inst and data) hits
system.cpu.itb.stage2_mmu.stage2_tlb.misses            0                       # Total TLB (inst and data) misses
system.cpu.itb.stage2_mmu.stage2_tlb.accesses            0                       # Total TLB (inst and data) accesses
system.cpu.itb.stage2_mmu.stage2_tlb.walker.walks            0                       # Table walker walks requested
system.cpu.itb.stage2_mmu.stage2_tlb.walker.requestOrigin_Requested::Data            0                       # Table walker requests started/completed, data/inst
system.cpu.itb.stage2_mmu.stage2_tlb.walker.requestOrigin_Requested::Inst            0                       # Table walker requests started/completed, data/inst
system.cpu.itb.stage2_mmu.stage2_tlb.walker.requestOrigin_Requested::total            0                       # Table walker requests started/completed, data/inst
system.cpu.itb.stage2_mmu.stage2_tlb.walker.requestOrigin_Completed::Data            0                       # Table walker requests started/completed, data/inst
system.cpu.itb.stage2_mmu.stage2_tlb.walker.requestOrigin_Completed::Inst            0                       # Table walker requests started/completed, data/inst
system.cpu.itb.stage2_mmu.stage2_tlb.walker.requestOrigin_Completed::total            0                       # Table walker requests started/completed, data/inst
system.cpu.itb.stage2_mmu.stage2_tlb.walker.requestOrigin::total            0                       # Table walker requests started/completed, data/inst
system.cpu.itb.stage2_mmu.stage2_tlb.walker.power_state.pwrStateResidencyTicks::UNDEFINED  80440060500                       # Cumulative time (in ticks) in various power states
system.cpu.itb.walker.walks                         0                       # Table walker walks requested
system.cpu.itb.walker.requestOrigin_Requested::Data            0                       # Table walker requests started/completed, data/inst
system.cpu.itb.walker.requestOrigin_Requested::Inst            0                       # Table walker requests started/completed, data/inst
system.cpu.itb.walker.requestOrigin_Requested::total            0                       # Table walker requests started/completed, data/inst
system.cpu.itb.walker.requestOrigin_Completed::Data            0                       # Table walker requests started/completed, data/inst
system.cpu.itb.walker.requestOrigin_Completed::Inst            0                       # Table walker requests started/completed, data/inst
system.cpu.itb.walker.requestOrigin_Completed::total            0                       # Table walker requests started/completed, data/inst
system.cpu.itb.walker.requestOrigin::total            0                       # Table walker requests started/completed, data/inst
system.cpu.itb.walker.power_state.pwrStateResidencyTicks::UNDEFINED  80440060500                       # Cumulative time (in ticks) in various power states
system.cpu.power_state.pwrStateResidencyTicks::ON  80440060500                       # Cumulative time (in ticks) in various power states
system.cpu.thread_0.numInsts                100000001                       # Number of Instructions committed
system.cpu.thread_0.numOps                  100196356                       # Number of Ops committed
system.cpu.thread_0.numMemRefs                      0                       # Number of Memory References
system.cpu_clk_domain.clock                       500                       # Clock period in ticks
system.cpu_voltage_domain.voltage                   1                       # Voltage in Volts
system.l2.demand_hits::.cpu.inst                   17                       # number of demand (read+write) hits
system.l2.demand_hits::.cpu.data               297110                       # number of demand (read+write) hits
system.l2.demand_hits::total                   297127                       # number of demand (read+write) hits
system.l2.overall_hits::.cpu.inst                  17                       # number of overall hits
system.l2.overall_hits::.cpu.data              297110                       # number of overall hits
system.l2.overall_hits::total                  297127                       # number of overall hits
system.l2.demand_misses::.cpu.inst                658                       # number of demand (read+write) misses
system.l2.demand_misses::.cpu.data             179278                       # number of demand (read+write) misses
system.l2.demand_misses::total                 179936                       # number of demand (read+write) misses
system.l2.overall_misses::.cpu.inst               658                       # number of overall misses
system.l2.overall_misses::.cpu.data            179278                       # number of overall misses
system.l2.overall_misses::total                179936                       # number of overall misses
system.l2.demand_miss_latency::.cpu.inst     50677500                       # number of demand (read+write) miss cycles
system.l2.demand_miss_latency::.cpu.data  14825092000                       # number of demand (read+write) miss cycles
system.l2.demand_miss_latency::total      14875769500                       # number of demand (read+write) miss cycles
system.l2.overall_miss_latency::.cpu.inst     50677500                       # number of overall miss cycles
system.l2.overall_miss_latency::.cpu.data  14825092000                       # number of overall miss cycles
system.l2.overall_miss_latency::total     14875769500                       # number of overall miss cycles
system.l2.demand_accesses::.cpu.inst              675                       # number of demand (read+write) accesses
system.l2.demand_accesses::.cpu.data           476388                       # number of demand (read+write) accesses
system.l2.demand_accesses::total               477063                       # number of demand (read+write) accesses
system.l2.overall_accesses::.cpu.inst             675                       # number of overall (read+write) accesses
system.l2.overall_accesses::.cpu.data          476388                       # number of overall (read+write) accesses
system.l2.overall_accesses::total              477063                       # number of overall (read+write) accesses
system.l2.demand_miss_rate::.cpu.inst        0.974815                       # miss rate for demand accesses
system.l2.demand_miss_rate::.cpu.data        0.376328                       # miss rate for demand accesses
system.l2.demand_miss_rate::total            0.377175                       # miss rate for demand accesses
system.l2.overall_miss_rate::.cpu.inst       0.974815                       # miss rate for overall accesses
system.l2.overall_miss_rate::.cpu.data       0.376328                       # miss rate for overall accesses
system.l2.overall_miss_rate::total           0.377175                       # miss rate for overall accesses
system.l2.demand_avg_miss_latency::.cpu.inst 77017.477204                       # average overall miss latency
system.l2.demand_avg_miss_latency::.cpu.data 82693.314294                       # average overall miss latency
system.l2.demand_avg_miss_latency::total 82672.558576                       # average overall miss latency
system.l2.overall_avg_miss_latency::.cpu.inst 77017.477204                       # average overall miss latency
system.l2.overall_avg_miss_latency::.cpu.data 82693.314294                       # average overall miss latency
system.l2.overall_avg_miss_latency::total 82672.558576                       # average overall miss latency
system.l2.blocked_cycles::no_mshrs                  0                       # number of cycles access was blocked
system.l2.blocked_cycles::no_targets                0                       # number of cycles access was blocked
system.l2.blocked::no_mshrs                         0                       # number of cycles access was blocked
system.l2.blocked::no_targets                       0                       # number of cycles access was blocked
system.l2.avg_blocked_cycles::no_mshrs            nan                       # average number of cycles each access was blocked
system.l2.avg_blocked_cycles::no_targets          nan                       # average number of cycles each access was blocked
system.l2.writebacks::.writebacks               68707                       # number of writebacks
system.l2.writebacks::total                     68707                       # number of writebacks
system.l2.demand_mshr_hits::.cpu.data               6                       # number of demand (read+write) MSHR hits
system.l2.demand_mshr_hits::total                   6                       # number of demand (read+write) MSHR hits
system.l2.overall_mshr_hits::.cpu.data              6                       # number of overall MSHR hits
system.l2.overall_mshr_hits::total                  6                       # number of overall MSHR hits
system.l2.demand_mshr_misses::.cpu.inst           658                       # number of demand (read+write) MSHR misses
system.l2.demand_mshr_misses::.cpu.data        179272                       # number of demand (read+write) MSHR misses
system.l2.demand_mshr_misses::total            179930                       # number of demand (read+write) MSHR misses
system.l2.overall_mshr_misses::.cpu.inst          658                       # number of overall MSHR misses
system.l2.overall_mshr_misses::.cpu.data       179272                       # number of overall MSHR misses
system.l2.overall_mshr_misses::total           179930                       # number of overall MSHR misses
system.l2.demand_mshr_miss_latency::.cpu.inst     44097500                       # number of demand (read+write) MSHR miss cycles
system.l2.demand_mshr_miss_latency::.cpu.data  13031994500                       # number of demand (read+write) MSHR miss cycles
system.l2.demand_mshr_miss_latency::total  13076092000                       # number of demand (read+write) MSHR miss cycles
system.l2.overall_mshr_miss_latency::.cpu.inst     44097500                       # number of overall MSHR miss cycles
system.l2.overall_mshr_miss_latency::.cpu.data  13031994500                       # number of overall MSHR miss cycles
system.l2.overall_mshr_miss_latency::total  13076092000                       # number of overall MSHR miss cycles
system.l2.demand_mshr_miss_rate::.cpu.inst     0.974815                       # mshr miss rate for demand accesses
system.l2.demand_mshr_miss_rate::.cpu.data     0.376315                       # mshr miss rate for demand accesses
system.l2.demand_mshr_miss_rate::total       0.377162                       # mshr miss rate for demand accesses
system.l2.overall_mshr_miss_rate::.cpu.inst     0.974815                       # mshr miss rate for overall accesses
system.l2.overall_mshr_miss_rate::.cpu.data     0.376315                       # mshr miss rate for overall accesses
system.l2.overall_mshr_miss_rate::total      0.377162                       # mshr miss rate for overall accesses
system.l2.demand_avg_mshr_miss_latency::.cpu.inst 67017.477204                       # average overall mshr miss latency
system.l2.demand_avg_mshr_miss_latency::.cpu.data 72693.976193                       # average overall mshr miss latency
system.l2.demand_avg_mshr_miss_latency::total 72673.217362                       # average overall mshr miss latency
system.l2.overall_avg_mshr_miss_latency::.cpu.inst 67017.477204                       # average overall mshr miss latency
system.l2.overall_avg_mshr_miss_latency::.cpu.data 72693.976193                       # average overall mshr miss latency
system.l2.overall_avg_mshr_miss_latency::total 72673.217362                       # average overall mshr miss latency
system.l2.replacements                         114396                       # number of replacements
system.l2.WritebackDirty_hits::.writebacks       420125                       # number of WritebackDirty hits
system.l2.WritebackDirty_hits::total           420125                       # number of WritebackDirty hits
system.l2.WritebackDirty_accesses::.writebacks       420125                       # number of WritebackDirty accesses(hits+misses)
system.l2.WritebackDirty_accesses::total       420125                       # number of WritebackDirty accesses(hits+misses)
system.l2.WritebackClean_hits::.writebacks            2                       # number of WritebackClean hits
system.l2.WritebackClean_hits::total                2                       # number of WritebackClean hits
system.l2.WritebackClean_accesses::.writebacks            2                       # number of WritebackClean accesses(hits+misses)
system.l2.WritebackClean_accesses::total            2                       # number of WritebackClean accesses(hits+misses)
system.l2.ReadExReq_hits::.cpu.data            100378                       # number of ReadExReq hits
system.l2.ReadExReq_hits::total                100378                       # number of ReadExReq hits
system.l2.ReadExReq_misses::.cpu.data          127637                       # number of ReadExReq misses
system.l2.ReadExReq_misses::total              127637                       # number of ReadExReq misses
system.l2.ReadExReq_miss_latency::.cpu.data  10855101500                       # number of ReadExReq miss cycles
system.l2.ReadExReq_miss_latency::total   10855101500                       # number of ReadExReq miss cycles
system.l2.ReadExReq_accesses::.cpu.data        228015                       # number of ReadExReq accesses(hits+misses)
system.l2.ReadExReq_accesses::total            228015                       # number of ReadExReq accesses(hits+misses)
system.l2.ReadExReq_miss_rate::.cpu.data     0.559775                       # miss rate for ReadExReq accesses
system.l2.ReadExReq_miss_rate::total         0.559775                       # miss rate for ReadExReq accesses
system.l2.ReadExReq_avg_miss_latency::.cpu.data 85046.667502                       # average ReadExReq miss latency
system.l2.ReadExReq_avg_miss_latency::total 85046.667502                       # average ReadExReq miss latency
system.l2.ReadExReq_mshr_misses::.cpu.data       127637                       # number of ReadExReq MSHR misses
system.l2.ReadExReq_mshr_misses::total         127637                       # number of ReadExReq MSHR misses
system.l2.ReadExReq_mshr_miss_latency::.cpu.data   9578731500                       # number of ReadExReq MSHR miss cycles
system.l2.ReadExReq_mshr_miss_latency::total   9578731500                       # number of ReadExReq MSHR miss cycles
system.l2.ReadExReq_mshr_miss_rate::.cpu.data     0.559775                       # mshr miss rate for ReadExReq accesses
system.l2.ReadExReq_mshr_miss_rate::total     0.559775                       # mshr miss rate for ReadExReq accesses
system.l2.ReadExReq_avg_mshr_miss_latency::.cpu.data 75046.667502                       # average ReadExReq mshr miss latency
system.l2.ReadExReq_avg_mshr_miss_latency::total 75046.667502                       # average ReadExReq mshr miss latency
system.l2.ReadCleanReq_hits::.cpu.inst             17                       # number of ReadCleanReq hits
system.l2.ReadCleanReq_hits::total                 17                       # number of ReadCleanReq hits
system.l2.ReadCleanReq_misses::.cpu.inst          658                       # number of ReadCleanReq misses
system.l2.ReadCleanReq_misses::total              658                       # number of ReadCleanReq misses
system.l2.ReadCleanReq_miss_latency::.cpu.inst     50677500                       # number of ReadCleanReq miss cycles
system.l2.ReadCleanReq_miss_latency::total     50677500                       # number of ReadCleanReq miss cycles
system.l2.ReadCleanReq_accesses::.cpu.inst          675                       # number of ReadCleanReq accesses(hits+misses)
system.l2.ReadCleanReq_accesses::total            675                       # number of ReadCleanReq accesses(hits+misses)
system.l2.ReadCleanReq_miss_rate::.cpu.inst     0.974815                       # miss rate for ReadCleanReq accesses
system.l2.ReadCleanReq_miss_rate::total      0.974815                       # miss rate for ReadCleanReq accesses
system.l2.ReadCleanReq_avg_miss_latency::.cpu.inst 77017.477204                       # average ReadCleanReq miss latency
system.l2.ReadCleanReq_avg_miss_latency::total 77017.477204                       # average ReadCleanReq miss latency
system.l2.ReadCleanReq_mshr_misses::.cpu.inst          658                       # number of ReadCleanReq MSHR misses
system.l2.ReadCleanReq_mshr_misses::total          658                       # number of ReadCleanReq MSHR misses
system.l2.ReadCleanReq_mshr_miss_latency::.cpu.inst     44097500                       # number of ReadCleanReq MSHR miss cycles
system.l2.ReadCleanReq_mshr_miss_latency::total     44097500                       # number of ReadCleanReq MSHR miss cycles
system.l2.ReadCleanReq_mshr_miss_rate::.cpu.inst     0.974815                       # mshr miss rate for ReadCleanReq accesses
system.l2.ReadCleanReq_mshr_miss_rate::total     0.974815                       # mshr miss rate for ReadCleanReq accesses
system.l2.ReadCleanReq_avg_mshr_miss_latency::.cpu.inst 67017.477204                       # average ReadCleanReq mshr miss latency
system.l2.ReadCleanReq_avg_mshr_miss_latency::total 67017.477204                       # average ReadCleanReq mshr miss latency
system.l2.ReadSharedReq_hits::.cpu.data        196732                       # number of ReadSharedReq hits
system.l2.ReadSharedReq_hits::total            196732                       # number of ReadSharedReq hits
system.l2.ReadSharedReq_misses::.cpu.data        51641                       # number of ReadSharedReq misses
system.l2.ReadSharedReq_misses::total           51641                       # number of ReadSharedReq misses
system.l2.ReadSharedReq_miss_latency::.cpu.data   3969990500                       # number of ReadSharedReq miss cycles
system.l2.ReadSharedReq_miss_latency::total   3969990500                       # number of ReadSharedReq miss cycles
system.l2.ReadSharedReq_accesses::.cpu.data       248373                       # number of ReadSharedReq accesses(hits+misses)
system.l2.ReadSharedReq_accesses::total        248373                       # number of ReadSharedReq accesses(hits+misses)
system.l2.ReadSharedReq_miss_rate::.cpu.data     0.207917                       # miss rate for ReadSharedReq accesses
system.l2.ReadSharedReq_miss_rate::total     0.207917                       # miss rate for ReadSharedReq accesses
system.l2.ReadSharedReq_avg_miss_latency::.cpu.data 76876.716175                       # average ReadSharedReq miss latency
system.l2.ReadSharedReq_avg_miss_latency::total 76876.716175                       # average ReadSharedReq miss latency
system.l2.ReadSharedReq_mshr_hits::.cpu.data            6                       # number of ReadSharedReq MSHR hits
system.l2.ReadSharedReq_mshr_hits::total            6                       # number of ReadSharedReq MSHR hits
system.l2.ReadSharedReq_mshr_misses::.cpu.data        51635                       # number of ReadSharedReq MSHR misses
system.l2.ReadSharedReq_mshr_misses::total        51635                       # number of ReadSharedReq MSHR misses
system.l2.ReadSharedReq_mshr_miss_latency::.cpu.data   3453263000                       # number of ReadSharedReq MSHR miss cycles
system.l2.ReadSharedReq_mshr_miss_latency::total   3453263000                       # number of ReadSharedReq MSHR miss cycles
system.l2.ReadSharedReq_mshr_miss_rate::.cpu.data     0.207893                       # mshr miss rate for ReadSharedReq accesses
system.l2.ReadSharedReq_mshr_miss_rate::total     0.207893                       # mshr miss rate for ReadSharedReq accesses
system.l2.ReadSharedReq_avg_mshr_miss_latency::.cpu.data 66878.338336                       # average ReadSharedReq mshr miss latency
system.l2.ReadSharedReq_avg_mshr_miss_latency::total 66878.338336                       # average ReadSharedReq mshr miss latency
system.l2.power_state.pwrStateResidencyTicks::UNDEFINED  80440060500                       # Cumulative time (in ticks) in various power states
system.l2.tags.tagsinuse                 63107.977988                       # Cycle average of tags in use
system.l2.tags.total_refs                      951339                       # Total number of references to valid blocks.
system.l2.tags.sampled_refs                    179932                       # Sample count of references to valid blocks.
system.l2.tags.avg_refs                      5.287214                       # Average number of references to valid blocks.
system.l2.tags.warmup_cycle                     77000                       # Cycle when the warmup percentage was hit.
system.l2.tags.occ_blocks::.writebacks       0.513359                       # Average occupied blocks per requestor
system.l2.tags.occ_blocks::.cpu.inst       119.227280                       # Average occupied blocks per requestor
system.l2.tags.occ_blocks::.cpu.data     62988.237348                       # Average occupied blocks per requestor
system.l2.tags.occ_percent::.writebacks      0.000008                       # Average percentage of cache occupancy
system.l2.tags.occ_percent::.cpu.inst        0.001819                       # Average percentage of cache occupancy
system.l2.tags.occ_percent::.cpu.data        0.961124                       # Average percentage of cache occupancy
system.l2.tags.occ_percent::total            0.962951                       # Average percentage of cache occupancy
system.l2.tags.occ_task_id_blocks::1024         65536                       # Occupied blocks per task id
system.l2.tags.age_task_id_blocks_1024::3         5732                       # Occupied blocks per task id
system.l2.tags.age_task_id_blocks_1024::4        59804                       # Occupied blocks per task id
system.l2.tags.occ_task_id_percent::1024            1                       # Percentage of cache occupancy per task id
system.l2.tags.tag_accesses                  61066012                       # Number of tag accesses
system.l2.tags.data_accesses                 61066012                       # Number of data accesses
system.l2.tags.power_state.pwrStateResidencyTicks::UNDEFINED  80440060500                       # Cumulative time (in ticks) in various power states
system.mem_ctrls.avgPriority_.writebacks::samples     68707.00                       # Average QoS priority value for accepted requests
system.mem_ctrls.avgPriority_.cpu.inst::samples       658.00                       # Average QoS priority value for accepted requests
system.mem_ctrls.avgPriority_.cpu.data::samples    179272.00                       # Average QoS priority value for accepted requests
system.mem_ctrls.priorityMinLatency      0.000000018750                       # per QoS priority minimum request to response latency (s)
system.mem_ctrls.priorityMaxLatency      0.002970328500                       # per QoS priority maximum request to response latency (s)
system.mem_ctrls.numReadWriteTurnArounds         4124                       # Number of turnarounds from READ to WRITE
system.mem_ctrls.numWriteReadTurnArounds         4124                       # Number of turnarounds from WRITE to READ
system.mem_ctrls.numStayReadState              442495                       # Number of times bus staying in READ state
system.mem_ctrls.numStayWriteState              64626                       # Number of times bus staying in WRITE state
system.mem_ctrls.readReqs                      179930                       # Number of read requests accepted
system.mem_ctrls.writeReqs                      68707                       # Number of write requests accepted
system.mem_ctrls.readBursts                    179930                       # Number of controller read bursts, including those serviced by the write queue
system.mem_ctrls.writeBursts                    68707                       # Number of controller write bursts, including those merged in the write queue
system.mem_ctrls.servicedByWrQ                      0                       # Number of controller read bursts serviced by the write queue
system.mem_ctrls.mergedWrBursts                     0                       # Number of controller write bursts merged with an existing one
system.mem_ctrls.neitherReadNorWriteReqs            0                       # Number of requests that are neither read nor write
system.mem_ctrls.avgRdQLen                       1.08                       # Average read queue length when enqueuing
system.mem_ctrls.avgWrQLen                      24.16                       # Average write queue length when enqueuing
system.mem_ctrls.numRdRetry                         0                       # Number of times read queue was full causing retry
system.mem_ctrls.numWrRetry                         0                       # Number of times write queue was full causing retry
system.mem_ctrls.readPktSize::0                     0                       # Read request sizes (log2)
system.mem_ctrls.readPktSize::1                     0                       # Read request sizes (log2)
system.mem_ctrls.readPktSize::2                     0                       # Read request sizes (log2)
system.mem_ctrls.readPktSize::3                     0                       # Read request sizes (log2)
system.mem_ctrls.readPktSize::4                     0                       # Read request sizes (log2)
system.mem_ctrls.readPktSize::5                     0                       # Read request sizes (log2)
system.mem_ctrls.readPktSize::6                179930                       # Read request sizes (log2)
system.mem_ctrls.writePktSize::0                    0                       # Write request sizes (log2)
system.mem_ctrls.writePktSize::1                    0                       # Write request sizes (log2)
system.mem_ctrls.writePktSize::2                    0                       # Write request sizes (log2)
system.mem_ctrls.writePktSize::3                    0                       # Write request sizes (log2)
system.mem_ctrls.writePktSize::4                    0                       # Write request sizes (log2)
system.mem_ctrls.writePktSize::5                    0                       # Write request sizes (log2)
system.mem_ctrls.writePktSize::6                68707                       # Write request sizes (log2)
system.mem_ctrls.rdQLenPdf::0                  120274                       # What read queue length does an incoming req see
system.mem_ctrls.rdQLenPdf::1                   57190                       # What read queue length does an incoming req see
system.mem_ctrls.rdQLenPdf::2                    2176                       # What read queue length does an incoming req see
system.mem_ctrls.rdQLenPdf::3                     289                       # What read queue length does an incoming req see
system.mem_ctrls.rdQLenPdf::4                       1                       # What read queue length does an incoming req see
system.mem_ctrls.rdQLenPdf::5                       0                       # What read queue length does an incoming req see
system.mem_ctrls.rdQLenPdf::6                       0                       # What read queue length does an incoming req see
system.mem_ctrls.rdQLenPdf::7                       0                       # What read queue length does an incoming req see
system.mem_ctrls.rdQLenPdf::8                       0                       # What read queue length does an incoming req see
system.mem_ctrls.rdQLenPdf::9                       0                       # What read queue length does an incoming req see
system.mem_ctrls.rdQLenPdf::10                      0                       # What read queue length does an incoming req see
system.mem_ctrls.rdQLenPdf::11                      0                       # What read queue length does an incoming req see
system.mem_ctrls.rdQLenPdf::12                      0                       # What read queue length does an incoming req see
[...]
system.mem_ctrls.dram.bw_write::.writebacks     54664902                       # Write bandwidth from this memory (bytes/s)
system.mem_ctrls.dram.bw_write::total        54664902                       # Write bandwidth from this memory (bytes/s)
system.mem_ctrls.dram.bw_total::.writebacks     54664902                       # Total bandwidth to/from this memory (bytes/s)
system.mem_ctrls.dram.bw_total::.cpu.inst       523520                       # Total bandwidth to/from this memory (bytes/s)
system.mem_ctrls.dram.bw_total::.cpu.data    142633011                       # Total bandwidth to/from this memory (bytes/s)
system.mem_ctrls.dram.bw_total::total       197821433                       # Total bandwidth to/from this memory (bytes/s)
system.mem_ctrls.dram.readBursts               179930                       # Number of DRAM read bursts
system.mem_ctrls.dram.writeBursts               68687                       # Number of DRAM write bursts
system.mem_ctrls.dram.perBankRdBursts::0        11304                       # Per bank write bursts
system.mem_ctrls.dram.perBankRdBursts::1        11368                       # Per bank write bursts
system.mem_ctrls.dram.perBankRdBursts::2        11347                       # Per bank write bursts
system.mem_ctrls.dram.perBankRdBursts::3        11351                       # Per bank write bursts
system.mem_ctrls.dram.perBankRdBursts::4        11386                       # Per bank write bursts
system.mem_ctrls.dram.perBankRdBursts::5        11175                       # Per bank write bursts
system.mem_ctrls.dram.perBankRdBursts::6        11208                       # Per bank write bursts
system.mem_ctrls.dram.perBankRdBursts::7        11129                       # Per bank write bursts
system.mem_ctrls.dram.perBankRdBursts::8        11213                       # Per bank write bursts
system.mem_ctrls.dram.perBankRdBursts::9        11024                       # Per bank write bursts
system.mem_ctrls.dram.perBankRdBursts::10        11279                       # Per bank write bursts
system.mem_ctrls.dram.perBankRdBursts::11        11267                       # Per bank write bursts
system.mem_ctrls.dram.perBankRdBursts::12        11277                       # Per bank write bursts
system.mem_ctrls.dram.perBankRdBursts::13        11264                       # Per bank write bursts
system.mem_ctrls.dram.perBankRdBursts::14        11189                       # Per bank write bursts
system.mem_ctrls.dram.perBankRdBursts::15        11149                       # Per bank write bursts
system.mem_ctrls.dram.perBankWrBursts::0         4265                       # Per bank write bursts
system.mem_ctrls.dram.perBankWrBursts::1         4338                       # Per bank write bursts
system.mem_ctrls.dram.perBankWrBursts::2         4360                       # Per bank write bursts
system.mem_ctrls.dram.perBankWrBursts::3         4389                       # Per bank write bursts
system.mem_ctrls.dram.perBankWrBursts::4         4381                       # Per bank write bursts
system.mem_ctrls.dram.perBankWrBursts::5         4366                       # Per bank write bursts
system.mem_ctrls.dram.perBankWrBursts::6         4361                       # Per bank write bursts
system.mem_ctrls.dram.perBankWrBursts::7         4350                       # Per bank write bursts
system.mem_ctrls.dram.perBankWrBursts::8         4325                       # Per bank write bursts
system.mem_ctrls.dram.perBankWrBursts::9         4208                       # Per bank write bursts
system.mem_ctrls.dram.perBankWrBursts::10         4225                       # Per bank write bursts
system.mem_ctrls.dram.perBankWrBursts::11         4224                       # Per bank write bursts
system.mem_ctrls.dram.perBankWrBursts::12         4224                       # Per bank write bursts
system.mem_ctrls.dram.perBankWrBursts::13         4224                       # Per bank write bursts
system.mem_ctrls.dram.perBankWrBursts::14         4224                       # Per bank write bursts
system.mem_ctrls.dram.perBankWrBursts::15         4223                       # Per bank write bursts
system.mem_ctrls.dram.totQLat              2285525500                       # Total ticks spent queuing
system.mem_ctrls.dram.totBusLat             899650000                       # Total ticks spent in databus transfers
system.mem_ctrls.dram.totMemAccLat         5659213000                       # Total ticks spent from burst creation until serviced by the DRAM
system.mem_ctrls.dram.avgQLat                12702.30                       # Average queueing delay per DRAM burst
system.mem_ctrls.dram.avgBusLat               5000.00                       # Average bus latency per DRAM burst
system.mem_ctrls.dram.avgMemAccLat           31452.30                       # Average memory access latency per DRAM burst
system.mem_ctrls.dram.readRowHits              131580                       # Number of row buffer hits during reads
system.mem_ctrls.dram.writeRowHits              53162                       # Number of row buffer hits during writes
system.mem_ctrls.dram.readRowHitRate            73.13                       # Row buffer hit rate for reads
system.mem_ctrls.dram.writeRowHitRate           77.40                       # Row buffer hit rate for writes
system.mem_ctrls.dram.bytesPerActivate::samples        63875                       # Bytes accessed per row activation
system.mem_ctrls.dram.bytesPerActivate::mean   249.103530                       # Bytes accessed per row activation
system.mem_ctrls.dram.bytesPerActivate::gmean   138.413204                       # Bytes accessed per row activation
system.mem_ctrls.dram.bytesPerActivate::stdev   296.766845                       # Bytes accessed per row activation
system.mem_ctrls.dram.bytesPerActivate::0-127        36428     57.03%     57.03% # Bytes accessed per row activation
system.mem_ctrls.dram.bytesPerActivate::128-255         8226     12.88%     69.91% # Bytes accessed per row activation
system.mem_ctrls.dram.bytesPerActivate::256-383         1735      2.72%     72.62% # Bytes accessed per row activation
system.mem_ctrls.dram.bytesPerActivate::384-511         1649      2.58%     75.21% # Bytes accessed per row activation
system.mem_ctrls.dram.bytesPerActivate::512-639         8257     12.93%     88.13% # Bytes accessed per row activation
system.mem_ctrls.dram.bytesPerActivate::640-767         1659      2.60%     90.73% # Bytes accessed per row activation
system.mem_ctrls.dram.bytesPerActivate::768-895          412      0.65%     91.38% # Bytes accessed per row activation
system.mem_ctrls.dram.bytesPerActivate::896-1023          441      0.69%     92.07% # Bytes accessed per row activation
system.mem_ctrls.dram.bytesPerActivate::1024-1151         5068      7.93%    100.00% # Bytes accessed per row activation
system.mem_ctrls.dram.bytesPerActivate::total        63875                       # Bytes accessed per row activation
system.mem_ctrls.dram.bytesRead              11515520                       # Total number of bytes read from DRAM
system.mem_ctrls.dram.bytesWritten            4395968                       # Total number of bytes written to DRAM
system.mem_ctrls.dram.avgRdBW              143.156531                       # Average DRAM read bandwidth in MiBytes/s
system.mem_ctrls.dram.avgWrBW               54.648989                       # Average DRAM write bandwidth in MiBytes/s
system.mem_ctrls.dram.peakBW                 12800.00                       # Theoretical peak bandwidth in MiByte/s
system.mem_ctrls.dram.busUtil                    1.55                       # Data bus utilization in percentage
system.mem_ctrls.dram.busUtilRead                1.12                       # Data bus utilization in percentage for reads
system.mem_ctrls.dram.busUtilWrite               0.43                       # Data bus utilization in percentage for writes
system.mem_ctrls.dram.pageHitRate               74.31                       # Row buffer hit rate, read and write combined
system.mem_ctrls.dram.power_state.pwrStateResidencyTicks::UNDEFINED  80440060500                       # Cumulative time (in ticks) in various power states
system.mem_ctrls.dram.rank0.actEnergy       230029380                       # Energy for activate commands per rank (pJ)
system.mem_ctrls.dram.rank0.preEnergy       122263515                       # Energy for precharge commands per rank (pJ)
system.mem_ctrls.dram.rank0.readEnergy      644513520                       # Energy for read commands per rank (pJ)
system.mem_ctrls.dram.rank0.writeEnergy     181708200                       # Energy for write commands per rank (pJ)
system.mem_ctrls.dram.rank0.refreshEnergy 6349845840.000001                       # Energy for refresh commands per rank (pJ)
system.mem_ctrls.dram.rank0.actBackEnergy  19436561670                       # Energy for active background per rank (pJ)
system.mem_ctrls.dram.rank0.preBackEnergy  14521352640                       # Energy for precharge background per rank (pJ)
system.mem_ctrls.dram.rank0.actPowerDownEnergy            0                       # Energy for active power-down per rank (pJ)
system.mem_ctrls.dram.rank0.prePowerDownEnergy            0                       # Energy for precharge power-down per rank (pJ)
system.mem_ctrls.dram.rank0.selfRefreshEnergy            0                       # Energy for self refresh per rank (pJ)
system.mem_ctrls.dram.rank0.totalEnergy   41486274765                       # Total energy per rank (pJ)
system.mem_ctrls.dram.rank0.averagePower   515.741466                       # Core power per rank (mW)
system.mem_ctrls.dram.rank0.totalIdleTime            0                       # Total Idle time Per DRAM Rank
system.mem_ctrls.dram.rank0.pwrStateTime::IDLE  37554689500                       # Time in different power states
system.mem_ctrls.dram.rank0.pwrStateTime::REF   2686060000                       # Time in different power states
system.mem_ctrls.dram.rank0.pwrStateTime::SREF            0                       # Time in different power states
system.mem_ctrls.dram.rank0.pwrStateTime::PRE_PDN            0                       # Time in different power states
system.mem_ctrls.dram.rank0.pwrStateTime::ACT  40199311000                       # Time in different power states
system.mem_ctrls.dram.rank0.pwrStateTime::ACT_PDN            0                       # Time in different power states
system.mem_ctrls.dram.rank1.actEnergy       226038120                       # Energy for activate commands per rank (pJ)
system.mem_ctrls.dram.rank1.preEnergy       120142110                       # Energy for precharge commands per rank (pJ)
system.mem_ctrls.dram.rank1.readEnergy      640186680                       # Energy for read commands per rank (pJ)
system.mem_ctrls.dram.rank1.writeEnergy     176837940                       # Energy for write commands per rank (pJ)
system.mem_ctrls.dram.rank1.refreshEnergy 6349845840.000001                       # Energy for refresh commands per rank (pJ)
system.mem_ctrls.dram.rank1.actBackEnergy  19033011930                       # Energy for active background per rank (pJ)
system.mem_ctrls.dram.rank1.preBackEnergy  14861184000                       # Energy for precharge background per rank (pJ)
system.mem_ctrls.dram.rank1.actPowerDownEnergy            0                       # Energy for active power-down per rank (pJ)
system.mem_ctrls.dram.rank1.prePowerDownEnergy            0                       # Energy for precharge power-down per rank (pJ)
system.mem_ctrls.dram.rank1.selfRefreshEnergy            0                       # Energy for self refresh per rank (pJ)
system.mem_ctrls.dram.rank1.totalEnergy   41407246620                       # Total energy per rank (pJ)
system.mem_ctrls.dram.rank1.averagePower   514.759019                       # Core power per rank (mW)
system.mem_ctrls.dram.rank1.totalIdleTime            0                       # Total Idle time Per DRAM Rank
system.mem_ctrls.dram.rank1.pwrStateTime::IDLE  38444305250                       # Time in different power states
system.mem_ctrls.dram.rank1.pwrStateTime::REF   2686060000                       # Time in different power states
system.mem_ctrls.dram.rank1.pwrStateTime::SREF            0                       # Time in different power states
system.mem_ctrls.dram.rank1.pwrStateTime::PRE_PDN            0                       # Time in different power states
system.mem_ctrls.dram.rank1.pwrStateTime::ACT  39309695250                       # Time in different power states
system.mem_ctrls.dram.rank1.pwrStateTime::ACT_PDN            0                       # Time in different power states
system.mem_ctrls.power_state.pwrStateResidencyTicks::UNDEFINED  80440060500                       # Cumulative time (in ticks) in various power states
system.membus.trans_dist::ReadResp              52293                       # Transaction distribution
system.membus.trans_dist::WritebackDirty        68707                       # Transaction distribution
system.membus.trans_dist::CleanEvict            45151                       # Transaction distribution
system.membus.trans_dist::ReadExReq            127637                       # Transaction distribution
system.membus.trans_dist::ReadExResp           127637                       # Transaction distribution
system.membus.trans_dist::ReadSharedReq         52293                       # Transaction distribution
system.membus.pkt_count_system.l2.mem_side_port::system.mem_ctrls.port       473718                       # Packet count per connected requestor and responder (bytes)
system.membus.pkt_count::total                 473718                       # Packet count per connected requestor and responder (bytes)
system.membus.pkt_size_system.l2.mem_side_port::system.mem_ctrls.port     15912768                       # Cumulative packet size per connected requestor and responder (bytes)
system.membus.pkt_size::total                15912768                       # Cumulative packet size per connected requestor and responder (bytes)
system.membus.snoops                                0                       # Total snoops (count)
system.membus.snoopTraffic                          0                       # Total snoop traffic (bytes)
system.membus.snoop_fanout::samples            179930                       # Request fanout histogram
system.membus.snoop_fanout::mean                    0                       # Request fanout histogram
system.membus.snoop_fanout::stdev                   0                       # Request fanout histogram
system.membus.snoop_fanout::underflows              0      0.00%      0.00% # Request fanout histogram
system.membus.snoop_fanout::0                  179930    100.00%    100.00% # Request fanout histogram
system.membus.snoop_fanout::1                       0      0.00%    100.00% # Request fanout histogram
system.membus.snoop_fanout::overflows               0      0.00%    100.00% # Request fanout histogram
system.membus.snoop_fanout::min_value               0                       # Request fanout histogram
system.membus.snoop_fanout::max_value               0                       # Request fanout histogram
system.membus.snoop_fanout::total              179930                       # Request fanout histogram
system.membus.power_state.pwrStateResidencyTicks::UNDEFINED  80440060500                       # Cumulative time (in ticks) in various power states
system.membus.reqLayer0.occupancy           601098500                       # Layer occupancy (ticks)
system.membus.reqLayer0.utilization               0.7                       # Layer utilization (%)
system.membus.respLayer1.occupancy          967500750                       # Layer occupancy (ticks)
system.membus.respLayer1.utilization              1.2                       # Layer utilization (%)
system.tol2bus.trans_dist::ReadResp            249048                       # Transaction distribution
system.tol2bus.trans_dist::WritebackDirty       488832                       # Transaction distribution
system.tol2bus.trans_dist::WritebackClean            2                       # Transaction distribution
system.tol2bus.trans_dist::CleanEvict           99904                       # Transaction distribution
system.tol2bus.trans_dist::ReadExReq           228015                       # Transaction distribution
system.tol2bus.trans_dist::ReadExResp          228015                       # Transaction distribution
system.tol2bus.trans_dist::ReadCleanReq           675                       # Transaction distribution
system.tol2bus.trans_dist::ReadSharedReq       248373                       # Transaction distribution
system.tol2bus.pkt_count_system.cpu.icache.mem_side_port::system.l2.cpu_side_port         1352                       # Packet count per connected requestor and responder (bytes)
system.tol2bus.pkt_count_system.cpu.dcache.mem_side_port::system.l2.cpu_side_port      1427116                       # Packet count per connected requestor and responder (bytes)
system.tol2bus.pkt_count::total               1428468                       # Packet count per connected requestor and responder (bytes)
system.tol2bus.pkt_size_system.cpu.icache.mem_side_port::system.l2.cpu_side_port        43328                       # Cumulative packet size per connected requestor and responder (bytes)
system.tol2bus.pkt_size_system.cpu.dcache.mem_side_port::system.l2.cpu_side_port     57376832                       # Cumulative packet size per connected requestor and responder (bytes)
system.tol2bus.pkt_size::total               57420160                       # Cumulative packet size per connected requestor and responder (bytes)
system.tol2bus.snoops                          114396                       # Total snoops (count)
system.tol2bus.snoopTraffic                   4397248                       # Total snoop traffic (bytes)
system.tol2bus.snoop_fanout::samples           591459                       # Request fanout histogram
system.tol2bus.snoop_fanout::mean            0.001014                       # Request fanout histogram
system.tol2bus.snoop_fanout::stdev           0.031834                       # Request fanout histogram
system.tol2bus.snoop_fanout::underflows             0      0.00%      0.00% # Request fanout histogram
system.tol2bus.snoop_fanout::0                 590859     99.90%     99.90% # Request fanout histogram
system.tol2bus.snoop_fanout::1                    600      0.10%    100.00% # Request fanout histogram
system.tol2bus.snoop_fanout::2                      0      0.00%    100.00% # Request fanout histogram
system.tol2bus.snoop_fanout::overflows              0      0.00%    100.00% # Request fanout histogram
system.tol2bus.snoop_fanout::min_value              0                       # Request fanout histogram
system.tol2bus.snoop_fanout::max_value              1                       # Request fanout histogram
system.tol2bus.snoop_fanout::total             591459                       # Request fanout histogram
system.tol2bus.power_state.pwrStateResidencyTicks::UNDEFINED  80440060500                       # Cumulative time (in ticks) in various power states
system.tol2bus.reqLayer0.occupancy          895829500                       # Layer occupancy (ticks)
system.tol2bus.reqLayer0.utilization              1.1                       # Layer utilization (%)
system.tol2bus.respLayer0.occupancy           1012500                       # Layer occupancy (ticks)
system.tol2bus.respLayer0.utilization             0.0                       # Layer utilization (%)
system.tol2bus.respLayer1.occupancy         714584994                       # Layer occupancy (ticks)
system.tol2bus.respLayer1.utilization             0.9                       # Layer utilization (%)
system.voltage_domain.voltage                       1                       # Voltage in Volts

---------- End Simulation Statistics   ----------
