
---------- Begin Simulation Statistics ----------
final_tick                               175149002000                       # Number of ticks from beginning of simulation (restored from checkpoints and never reset)
host_inst_rate                                 235476                       # Simulator instruction rate (inst/s)
host_mem_usage                                 718956                       # Number of bytes of host memory used
host_op_rate                                   235484                       # Simulator op (including micro ops) rate (op/s)
host_seconds                                   424.67                       # Real time elapsed on the host
host_tick_rate                              412434327                       # Simulator tick rate (ticks/s)
sim_freq                                 1000000000000                       # Frequency of simulated ticks
sim_insts                                   100000001                       # Number of instructions simulated
sim_ops                                     100003447                       # Number of ops (including micro ops) simulated
sim_seconds                                  0.175149                       # Number of seconds simulated
sim_ticks                                175149002000                       # Number of ticks simulated
system.cpu.committedInsts                   100000001                       # Number of instructions committed
system.cpu.committedOps                     100003447                       # Number of ops (including micro ops) committed
system.cpu.cpi                               3.502980                       # CPI: cycles per instruction
system.cpu.discardedOps                         21088                       # Number of ops (including micro ops) which were discarded before commit
system.cpu.idleCycles                       232946625                       # Total number of cycles that the object has spent stopped
system.cpu.ipc                               0.285471                       # IPC: instructions per cycle
system.cpu.numCycles                        350298004                       # number of cpu cycles simulated
system.cpu.numFetchSuspends                         0                       # Number of times Execute suspended instruction fetching
system.cpu.numWorkItemsCompleted                    0                       # number of work items this cpu completed
system.cpu.numWorkItemsStarted                      0                       # number of work items this cpu started
system.cpu.op_class_0::No_OpClass                   0      0.00%      0.00% # Class of committed instruction
system.cpu.op_class_0::IntAlu                49995247     49.99%     49.99% # Class of committed instruction
system.cpu.op_class_0::IntMult                     85      0.00%     49.99% # Class of committed instruction
system.cpu.op_class_0::IntDiv                       0      0.00%     49.99% # Class of committed instruction
system.cpu.op_class_0::FloatAdd                     0      0.00%     49.99% # Class of committed instruction
system.cpu.op_class_0::FloatCmp                     0      0.00%     49.99% # Class of committed instruction
system.cpu.op_class_0::FloatCvt                     0      0.00%     49.99% # Class of committed instruction
system.cpu.op_class_0::FloatMult                    0      0.00%     49.99% # Class of committed instruction
system.cpu.op_class_0::FloatMultAcc                 0      0.00%     49.99% # Class of committed instruction
system.cpu.op_class_0::FloatDiv                     0      0.00%     49.99% # Class of committed instruction
system.cpu.op_class_0::FloatMisc                    0      0.00%     49.99% # Class of committed instruction
system.cpu.op_class_0::FloatSqrt                    0      0.00%     49.99% # Class of committed instruction
system.cpu.op_class_0::SimdAdd                      0      0.00%     49.99% # Class of committed instruction
system.cpu.op_class_0::SimdAddAcc                   0      0.00%     49.99% # Class of committed instruction
system.cpu.op_class_0::SimdAlu                      0      0.00%     49.99% # Class of committed instruction
system.cpu.op_class_0::SimdCmp                      0      0.00%     49.99% # Class of committed instruction
system.cpu.op_class_0::SimdCvt                      0      0.00%     49.99% # Class of committed instruction
system.cpu.op_class_0::SimdMisc                     0      0.00%     49.99% # Class of committed instruction
system.cpu.op_class_0::SimdMult                     0      0.00%     49.99% # Class of committed instruction
system.cpu.op_class_0::SimdMultAcc                  0      0.00%     49.99% # Class of committed instruction
system.cpu.op_class_0::SimdShift                    0      0.00%     49.99% # Class of committed instruction
system.cpu.op_class_0::SimdShiftAcc                 0      0.00%     49.99% # Class of committed instruction
system.cpu.op_class_0::SimdDiv                      0      0.00%     49.99% # Class of committed instruction
system.cpu.op_class_0::SimdSqrt                     0      0.00%     49.99% # Class of committed instruction
system.cpu.op_class_0::SimdFloatAdd                 0      0.00%     49.99% # Class of committed instruction
system.cpu.op_class_0::SimdFloatAlu                 0      0.00%     49.99% # Class of committed instruction
system.cpu.op_class_0::SimdFloatCmp                 2      0.00%     49.99% # Class of committed instruction
system.cpu.op_class_0::SimdFloatCvt                 0      0.00%     49.99% # Class of committed instruction
system.cpu.op_class_0::SimdFloatDiv                 0      0.00%     49.99% # Class of committed instruction
system.cpu.op_class_0::SimdFloatMisc                5      0.00%     49.99% # Class of committed instruction
system.cpu.op_class_0::SimdFloatMult                0      0.00%     49.99% # Class of committed instruction
system.cpu.op_class_0::SimdFloatMultAcc             0      0.00%     49.99% # Class of committed instruction
system.cpu.op_class_0::SimdFloatSqrt                0      0.00%     49.99% # Class of committed instruction
system.cpu.op_class_0::SimdReduceAdd                0      0.00%     49.99% # Class of committed instruction
system.cpu.op_class_0::SimdReduceAlu                0      0.00%     49.99% # Class of committed instruction
system.cpu.op_class_0::SimdReduceCmp                0      0.00%     49.99% # Class of committed instruction
system.cpu.op_class_0::SimdFloatReduceAdd            0      0.00%     49.99% # Class of committed instruction
system.cpu.op_class_0::SimdFloatReduceCmp            0      0.00%     49.99% # Class of committed instruction
system.cpu.op_class_0::SimdAes                      0      0.00%     49.99% # Class of committed instruction
system.cpu.op_class_0::SimdAesMix                   0      0.00%     49.99% # Class of committed instruction
system.cpu.op_class_0::SimdSha1Hash                 0      0.00%     49.99% # Class of committed instruction
system.cpu.op_class_0::SimdSha1Hash2                0      0.00%     49.99% # Class of committed instruction
system.cpu.op_class_0::SimdSha256Hash               0      0.00%     49.99% # Class of committed instruction
system.cpu.op_class_0::SimdSha256Hash2              0      0.00%     49.99% # Class of committed instruction
system.cpu.op_class_0::SimdShaSigma2                0      0.00%     49.99% # Class of committed instruction
system.cpu.op_class_0::SimdShaSigma3                0      0.00%     49.99% # Class of committed instruction
system.cpu.op_class_0::SimdPredAlu                  0      0.00%     49.99% # Class of committed instruction
system.cpu.op_class_0::MemRead               36892277     36.89%     86.88% # Class of committed instruction
system.cpu.op_class_0::MemWrite              13115831     13.12%    100.00% # Class of committed instruction
system.cpu.op_class_0::FloatMemRead                 0      0.00%    100.00% # Class of committed instruction
system.cpu.op_class_0::FloatMemWrite                0      0.00%    100.00% # Class of committed instruction
system.cpu.op_class_0::IprAccess                    0      0.00%    100.00% # Class of committed instruction
system.cpu.op_class_0::InstPrefetch                 0      0.00%    100.00% # Class of committed instruction
system.cpu.op_class_0::total                100003447                       # Class of committed instruction
system.cpu.tickCycles                       117351379                       # Number of cycles that the object actually ticked
system.cpu.workload.numSyscalls                    19                       # Number of system calls
system.membus.snoop_filter.hit_multi_requests            0                       # Number of requests hitting in the snoop filter with multiple (>1) holders of the requested data.
system.membus.snoop_filter.hit_multi_snoops            0                       # Number of snoops hitting in the snoop filter with multiple (>1) holders of the requested data.
system.membus.snoop_filter.hit_single_requests      1455016                       # Number of requests hitting in the snoop filter with a single holder of the requested data.
system.membus.snoop_filter.hit_single_snoops            0                       # Number of snoops hitting in the snoop filter with a single holder of the requested data.
system.membus.snoop_filter.tot_requests       2943110                       # Total number of requests made to the snoop filter.
system.membus.snoop_filter.tot_snoops               0                       # Total number of snoops made to the snoop filter.
system.tol2bus.snoop_filter.hit_multi_requests           35                       # Number of requests hitting in the snoop filter with multiple (>1) holders of the requested data.
system.tol2bus.snoop_filter.hit_multi_snoops            1                       # Number of snoops hitting in the snoop filter with multiple (>1) holders of the requested data.
system.tol2bus.snoop_filter.hit_single_requests      1486970                       # Number of requests hitting in the snoop filter with a single holder of the requested data.
system.tol2bus.snoop_filter.hit_single_snoops          309                       # Number of snoops hitting in the snoop filter with a single holder of the requested data.
system.tol2bus.snoop_filter.tot_requests      2975270                       # Total number of requests made to the snoop filter.
system.tol2bus.snoop_filter.tot_snoops            310                       # Total number of snoops made to the snoop filter.
system.clk_domain.clock                          1000                       # Clock period in ticks
system.cpu.branchPred.lookups                  606297                       # Number of BP lookups
system.cpu.branchPred.condPredicted            604299                       # Number of conditional branches predicted
system.cpu.branchPred.condIncorrect               815                       # Number of conditional branches incorrect
system.cpu.branchPred.BTBLookups               602229                       # Number of BTB lookups
system.cpu.branchPred.BTBHits                  601168                       # Number of BTB hits
system.cpu.branchPred.BTBHitPct             99.823821                       # BTB Hit Percentage
system.cpu.branchPred.RASUsed                     552                       # Number of times the RAS was used to get a target.
system.cpu.branchPred.RASIncorrect                  1                       # Number of incorrect RAS predictions.
system.cpu.branchPred.indirectLookups             356                       # Number of indirect predictor lookups.
system.cpu.branchPred.indirectHits                168                       # Number of indirect target hits.
system.cpu.branchPred.indirectMisses              188                       # Number of indirect misses.
system.cpu.branchPred.indirectMispredicted          103                       # Number of mispredicted indirect branches.
system.cpu.dcache.demand_hits::.cpu.data     45820025                       # number of demand (read+write) hits
system.cpu.dcache.demand_hits::total         45820025                       # number of demand (read+write) hits
system.cpu.dcache.overall_hits::.cpu.data     45820055                       # number of overall hits
system.cpu.dcache.overall_hits::total        45820055                       # number of overall hits
system.cpu.dcache.demand_misses::.cpu.data      2975076                       # number of demand (read+write) misses
system.cpu.dcache.demand_misses::total        2975076                       # number of demand (read+write) misses
system.cpu.dcache.overall_misses::.cpu.data      2975098                       # number of overall misses
system.cpu.dcache.overall_misses::total       2975098                       # number of overall misses
system.cpu.dcache.demand_miss_latency::.cpu.data 238015214500                       # number of demand (read+write) miss cycles
system.cpu.dcache.demand_miss_latency::total 238015214500                       # number of demand (read+write) miss cycles
system.cpu.dcache.overall_miss_latency::.cpu.data 238015214500                       # number of overall miss cycles
system.cpu.dcache.overall_miss_latency::total 238015214500                       # number of overall miss cycles
system.cpu.dcache.demand_accesses::.cpu.data     48795101                       # number of demand (read+write) accesses
system.cpu.dcache.demand_accesses::total     48795101                       # number of demand (read+write) accesses
system.cpu.dcache.overall_accesses::.cpu.data     48795153                       # number of overall (read+write) accesses
system.cpu.dcache.overall_accesses::total     48795153                       # number of overall (read+write) accesses
system.cpu.dcache.demand_miss_rate::.cpu.data     0.060971                       # miss rate for demand accesses
system.cpu.dcache.demand_miss_rate::total     0.060971                       # miss rate for demand accesses
system.cpu.dcache.overall_miss_rate::.cpu.data     0.060971                       # miss rate for overall accesses
system.cpu.dcache.overall_miss_rate::total     0.060971                       # miss rate for overall accesses
system.cpu.dcache.demand_avg_miss_latency::.cpu.data 80003.070342                       # average overall miss latency
system.cpu.dcache.demand_avg_miss_latency::total 80003.070342                       # average overall miss latency
system.cpu.dcache.overall_avg_miss_latency::.cpu.data 80002.478742                       # average overall miss latency
system.cpu.dcache.overall_avg_miss_latency::total 80002.478742                       # average overall miss latency
system.cpu.dcache.blocked_cycles::no_mshrs            0                       # number of cycles access was blocked
system.cpu.dcache.blocked_cycles::no_targets            0                       # number of cycles access was blocked
system.cpu.dcache.blocked::no_mshrs                 0                       # number of cycles access was blocked
system.cpu.dcache.blocked::no_targets               0                       # number of cycles access was blocked
system.cpu.dcache.avg_blocked_cycles::no_mshrs          nan                       # average number of cycles each access was blocked
system.cpu.dcache.avg_blocked_cycles::no_targets          nan                       # average number of cycles each access was blocked
system.cpu.dcache.writebacks::.writebacks      1486489                       # number of writebacks
system.cpu.dcache.writebacks::total           1486489                       # number of writebacks
system.cpu.dcache.demand_mshr_hits::.cpu.data      1487479                       # number of demand (read+write) MSHR hits
system.cpu.dcache.demand_mshr_hits::total      1487479                       # number of demand (read+write) MSHR hits
system.cpu.dcache.overall_mshr_hits::.cpu.data      1487479                       # number of overall MSHR hits
system.cpu.dcache.overall_mshr_hits::total      1487479                       # number of overall MSHR hits
system.cpu.dcache.demand_mshr_misses::.cpu.data      1487597                       # number of demand (read+write) MSHR misses
system.cpu.dcache.demand_mshr_misses::total      1487597                       # number of demand (read+write) MSHR misses
system.cpu.dcache.overall_mshr_misses::.cpu.data      1487614                       # number of overall MSHR misses
system.cpu.dcache.overall_mshr_misses::total      1487614                       # number of overall MSHR misses
system.cpu.dcache.demand_mshr_miss_latency::.cpu.data 121471095500                       # number of demand (read+write) MSHR miss cycles
system.cpu.dcache.demand_mshr_miss_latency::total 121471095500                       # number of demand (read+write) MSHR miss cycles
system.cpu.dcache.overall_mshr_miss_latency::.cpu.data 121472456500                       # number of overall MSHR miss cycles
system.cpu.dcache.overall_mshr_miss_latency::total 121472456500                       # number of overall MSHR miss cycles
system.cpu.dcache.demand_mshr_miss_rate::.cpu.data     0.030487                       # mshr miss rate for demand accesses
system.cpu.dcache.demand_mshr_miss_rate::total     0.030487                       # mshr miss rate for demand accesses
system.cpu.dcache.overall_mshr_miss_rate::.cpu.data     0.030487                       # mshr miss rate for overall accesses
system.cpu.dcache.overall_mshr_miss_rate::total     0.030487                       # mshr miss rate for overall accesses
system.cpu.dcache.demand_avg_mshr_miss_latency::.cpu.data 81655.915883                       # average overall mshr miss latency
system.cpu.dcache.demand_avg_mshr_miss_latency::total 81655.915883                       # average overall mshr miss latency
system.cpu.dcache.overall_avg_mshr_miss_latency::.cpu.data 81655.897632                       # average overall mshr miss latency
system.cpu.dcache.overall_avg_mshr_miss_latency::total 81655.897632                       # average overall mshr miss latency
system.cpu.dcache.replacements                1486591                       # number of replacements
system.cpu.dcache.ReadReq_hits::.cpu.data     35702508                       # number of ReadReq hits
system.cpu.dcache.ReadReq_hits::total        35702508                       # number of ReadReq hits
system.cpu.dcache.ReadReq_misses::.cpu.data          106                       # number of ReadReq misses
system.cpu.dcache.ReadReq_misses::total           106                       # number of ReadReq misses
system.cpu.dcache.ReadReq_miss_latency::.cpu.data      7986500                       # number of ReadReq miss cycles
system.cpu.dcache.ReadReq_miss_latency::total      7986500                       # number of ReadReq miss cycles
system.cpu.dcache.ReadReq_accesses::.cpu.data     35702614                       # number of ReadReq accesses(hits+misses)
system.cpu.dcache.ReadReq_accesses::total     35702614                       # number of ReadReq accesses(hits+misses)
system.cpu.dcache.ReadReq_miss_rate::.cpu.data     0.000003                       # miss rate for ReadReq accesses
system.cpu.dcache.ReadReq_miss_rate::total     0.000003                       # miss rate for ReadReq accesses
system.cpu.dcache.ReadReq_avg_miss_latency::.cpu.data 75344.339623                       # average ReadReq miss latency
system.cpu.dcache.ReadReq_avg_miss_latency::total 75344.339623                       # average ReadReq miss latency
system.cpu.dcache.ReadReq_mshr_hits::.cpu.data            5                       # number of ReadReq MSHR hits
system.cpu.dcache.ReadReq_mshr_hits::total            5                       # number of ReadReq MSHR hits
system.cpu.dcache.ReadReq_mshr_misses::.cpu.data          101                       # number of ReadReq MSHR misses
system.cpu.dcache.ReadReq_mshr_misses::total          101                       # number of ReadReq MSHR misses
system.cpu.dcache.ReadReq_mshr_miss_latency::.cpu.data      7438500                       # number of ReadReq MSHR miss cycles
system.cpu.dcache.ReadReq_mshr_miss_latency::total      7438500                       # number of ReadReq MSHR miss cycles
system.cpu.dcache.ReadReq_mshr_miss_rate::.cpu.data     0.000003                       # mshr miss rate for ReadReq accesses
system.cpu.dcache.ReadReq_mshr_miss_rate::total     0.000003                       # mshr miss rate for ReadReq accesses
system.cpu.dcache.ReadReq_avg_mshr_miss_latency::.cpu.data 73648.514851                       # average ReadReq mshr miss latency
system.cpu.dcache.ReadReq_avg_mshr_miss_latency::total 73648.514851                       # average ReadReq mshr miss latency
system.cpu.dcache.WriteReq_hits::.cpu.data     10117517                       # number of WriteReq hits
system.cpu.dcache.WriteReq_hits::total       10117517                       # number of WriteReq hits
system.cpu.dcache.WriteReq_misses::.cpu.data      2974970                       # number of WriteReq misses
system.cpu.dcache.WriteReq_misses::total      2974970                       # number of WriteReq misses
system.cpu.dcache.WriteReq_miss_latency::.cpu.data 238007228000                       # number of WriteReq miss cycles
system.cpu.dcache.WriteReq_miss_latency::total 238007228000                       # number of WriteReq miss cycles
system.cpu.dcache.WriteReq_accesses::.cpu.data     13092487                       # number of WriteReq accesses(hits+misses)
system.cpu.dcache.WriteReq_accesses::total     13092487                       # number of WriteReq accesses(hits+misses)
system.cpu.dcache.WriteReq_miss_rate::.cpu.data     0.227227                       # miss rate for WriteReq accesses
system.cpu.dcache.WriteReq_miss_rate::total     0.227227                       # miss rate for WriteReq accesses
system.cpu.dcache.WriteReq_avg_miss_latency::.cpu.data 80003.236335                       # average WriteReq miss latency
system.cpu.dcache.WriteReq_avg_miss_latency::total 80003.236335                       # average WriteReq miss latency
system.cpu.dcache.WriteReq_mshr_hits::.cpu.data      1487474                       # number of WriteReq MSHR hits
system.cpu.dcache.WriteReq_mshr_hits::total      1487474                       # number of WriteReq MSHR hits
system.cpu.dcache.WriteReq_mshr_misses::.cpu.data      1487496                       # number of WriteReq MSHR misses
system.cpu.dcache.WriteReq_mshr_misses::total      1487496                       # number of WriteReq MSHR misses
system.cpu.dcache.WriteReq_mshr_miss_latency::.cpu.data 121463657000                       # number of WriteReq MSHR miss cycles
system.cpu.dcache.WriteReq_mshr_miss_latency::total 121463657000                       # number of WriteReq MSHR miss cycles
system.cpu.dcache.WriteReq_mshr_miss_rate::.cpu.data     0.113614                       # mshr miss rate for WriteReq accesses
system.cpu.dcache.WriteReq_mshr_miss_rate::total     0.113614                       # mshr miss rate for WriteReq accesses
system.cpu.dcache.WriteReq_avg_mshr_miss_latency::.cpu.data 81656.459580                       # average WriteReq mshr miss latency
system.cpu.dcache.WriteReq_avg_mshr_miss_latency::total 81656.459580                       # average WriteReq mshr miss latency
system.cpu.dcache.SoftPFReq_hits::.cpu.data           30                       # number of SoftPFReq hits
system.cpu.dcache.SoftPFReq_hits::total            30                       # number of SoftPFReq hits
system.cpu.dcache.SoftPFReq_misses::.cpu.data           22                       # number of SoftPFReq misses
system.cpu.dcache.SoftPFReq_misses::total           22                       # number of SoftPFReq misses
system.cpu.dcache.SoftPFReq_accesses::.cpu.data           52                       # number of SoftPFReq accesses(hits+misses)
system.cpu.dcache.SoftPFReq_accesses::total           52                       # number of SoftPFReq accesses(hits+misses)
system.cpu.dcache.SoftPFReq_miss_rate::.cpu.data     0.423077                       # miss rate for SoftPFReq accesses
system.cpu.dcache.SoftPFReq_miss_rate::total     0.423077                       # miss rate for SoftPFReq accesses
system.cpu.dcache.SoftPFReq_mshr_misses::.cpu.data           17                       # number of SoftPFReq MSHR misses
system.cpu.dcache.SoftPFReq_mshr_misses::total           17                       # number of SoftPFReq MSHR misses
system.cpu.dcache.SoftPFReq_mshr_miss_latency::.cpu.data      1361000                       # number of SoftPFReq MSHR miss cycles
system.cpu.dcache.SoftPFReq_mshr_miss_latency::total      1361000                       # number of SoftPFReq MSHR miss cycles
system.cpu.dcache.SoftPFReq_mshr_miss_rate::.cpu.data     0.326923                       # mshr miss rate for SoftPFReq accesses
system.cpu.dcache.SoftPFReq_mshr_miss_rate::total     0.326923                       # mshr miss rate for SoftPFReq accesses
system.cpu.dcache.SoftPFReq_avg_mshr_miss_latency::.cpu.data 80058.823529                       # average SoftPFReq mshr miss latency
system.cpu.dcache.SoftPFReq_avg_mshr_miss_latency::total 80058.823529                       # average SoftPFReq mshr miss latency
system.cpu.dcache.LoadLockedReq_hits::.cpu.data           13                       # number of LoadLockedReq hits
system.cpu.dcache.LoadLockedReq_hits::total           13                       # number of LoadLockedReq hits
system.cpu.dcache.LoadLockedReq_misses::.cpu.data            1                       # number of LoadLockedReq misses
system.cpu.dcache.LoadLockedReq_misses::total            1                       # number of LoadLockedReq misses
system.cpu.dcache.LoadLockedReq_miss_latency::.cpu.data        86500                       # number of LoadLockedReq miss cycles
system.cpu.dcache.LoadLockedReq_miss_latency::total        86500                       # number of LoadLockedReq miss cycles
system.cpu.dcache.LoadLockedReq_accesses::.cpu.data           14                       # number of LoadLockedReq accesses(hits+misses)
system.cpu.dcache.LoadLockedReq_accesses::total           14                       # number of LoadLockedReq accesses(hits+misses)
system.cpu.dcache.LoadLockedReq_miss_rate::.cpu.data     0.071429                       # miss rate for LoadLockedReq accesses
system.cpu.dcache.LoadLockedReq_miss_rate::total     0.071429                       # miss rate for LoadLockedReq accesses
system.cpu.dcache.LoadLockedReq_avg_miss_latency::.cpu.data        86500                       # average LoadLockedReq miss latency
system.cpu.dcache.LoadLockedReq_avg_miss_latency::total        86500                       # average LoadLockedReq miss latency
system.cpu.dcache.LoadLockedReq_mshr_misses::.cpu.data            1                       # number of LoadLockedReq MSHR misses
system.cpu.dcache.LoadLockedReq_mshr_misses::total            1                       # number of LoadLockedReq MSHR misses
system.cpu.dcache.LoadLockedReq_mshr_miss_latency::.cpu.data        85500                       # number of LoadLockedReq MSHR miss cycles
system.cpu.dcache.LoadLockedReq_mshr_miss_latency::total        85500                       # number of LoadLockedReq MSHR miss cycles
system.cpu.dcache.LoadLockedReq_mshr_miss_rate::.cpu.data     0.071429                       # mshr miss rate for LoadLockedReq accesses
system.cpu.dcache.LoadLockedReq_mshr_miss_rate::total     0.071429                       # mshr miss rate for LoadLockedReq accesses
system.cpu.dcache.LoadLockedReq_avg_mshr_miss_latency::.cpu.data        85500                       # average LoadLockedReq mshr miss latency
system.cpu.dcache.LoadLockedReq_avg_mshr_miss_latency::total        85500                       # average LoadLockedReq mshr miss latency
system.cpu.dcache.StoreCondReq_hits::.cpu.data           14                       # number of StoreCondReq hits
system.cpu.dcache.StoreCondReq_hits::total           14                       # number of StoreCondReq hits
system.cpu.dcache.StoreCondReq_accesses::.cpu.data           14                       # number of StoreCondReq accesses(hits+misses)
system.cpu.dcache.StoreCondReq_accesses::total           14                       # number of StoreCondReq accesses(hits+misses)
system.cpu.dcache.power_state.pwrStateResidencyTicks::UNDEFINED 175149002000                       # Cumulative time (in ticks) in various power states
system.cpu.dcache.tags.tagsinuse          1023.428546                       # Cycle average of tags in use
system.cpu.dcache.tags.total_refs            47307697                       # Total number of references to valid blocks.
system.cpu.dcache.tags.sampled_refs           1487615                       # Sample count of references to valid blocks.
system.cpu.dcache.tags.avg_refs             31.801035                       # Average number of references to valid blocks.
system.cpu.dcache.tags.warmup_cycle            195500                       # Cycle when the warmup percentage was hit.
system.cpu.dcache.tags.occ_blocks::.cpu.data  1023.428546                       # Average occupied blocks per requestor
system.cpu.dcache.tags.occ_percent::.cpu.data     0.999442                       # Average percentage of cache occupancy
system.cpu.dcache.tags.occ_percent::total     0.999442                       # Average percentage of cache occupancy
system.cpu.dcache.tags.occ_task_id_blocks::1024         1024                       # Occupied blocks per task id
system.cpu.dcache.tags.age_task_id_blocks_1024::0           85                       # Occupied blocks per task id
system.cpu.dcache.tags.age_task_id_blocks_1024::1          765                       # Occupied blocks per task id
system.cpu.dcache.tags.age_task_id_blocks_1024::2          171                       # Occupied blocks per task id
system.cpu.dcache.tags.age_task_id_blocks_1024::4            3                       # Occupied blocks per task id
system.cpu.dcache.tags.occ_task_id_percent::1024            1                       # Percentage of cache occupancy per task id
system.cpu.dcache.tags.tag_accesses          99077977                       # Number of tag accesses
system.cpu.dcache.tags.data_accesses         99077977                       # Number of data accesses
system.cpu.dcache.tags.power_state.pwrStateResidencyTicks::UNDEFINED 175149002000                       # Cumulative time (in ticks) in various power states
system.cpu.dtb.instHits                             0                       # ITB inst hits
system.cpu.dtb.instMisses                           0                       # ITB inst misses
system.cpu.dtb.readHits                             0                       # DTB read hits
system.cpu.dtb.readMisses                           0                       # DTB read misses
system.cpu.dtb.writeHits                            0                       # DTB write hits
system.cpu.dtb.writeMisses                          0                       # DTB write misses
system.cpu.dtb.inserts                              0                       # Number of times an entry is inserted into the TLB
system.cpu.dtb.flushTlb                             0                       # Number of times complete TLB was flushed
system.cpu.dtb.flushTlbMva                          0                       # Number of times TLB was flushed by MVA
system.cpu.dtb.flushTlbMvaAsid                      0                       # Number of times TLB was flushed by MVA & ASID
system.cpu.dtb.flushTlbAsid                         0                       # Number of times TLB was flushed by ASID
system.cpu.dtb.flushedEntries                       0                       # Number of entries that have been flushed from TLB
system.cpu.dtb.alignFaults                          0                       # Number of TLB faults due to alignment restrictions
system.cpu.dtb.prefetchFaults                       0                       # Number of TLB faults due to prefetch
system.cpu.dtb.domainFaults                         0                       # Number of TLB faults due to domain restrictions
system.cpu.dtb.permsFaults                          0                       # Number of TLB faults due to permissions restrictions
system.cpu.dtb.readAccesses                         0                       # DTB read accesses
system.cpu.dtb.writeAccesses                        0                       # DTB write accesses
system.cpu.dtb.instAccesses                         0                       # ITB inst accesses
system.cpu.dtb.hits                                 0                       # Total TLB (inst and data) hits
system.cpu.dtb.misses                               0                       # Total TLB (inst and data) misses
system.cpu.dtb.accesses                             0                       # Total TLB (inst and data) accesses
system.cpu.dtb.stage2_mmu.stage2_tlb.instHits            0                       # ITB inst hits
system.cpu.dtb.stage2_mmu.stage2_tlb.instMisses            0                       # ITB inst misses
system.cpu.dtb.stage2_mmu.stage2_tlb.readHits            0                       # DTB read hits
system.cpu.dtb.stage2_mmu.stage2_tlb.readMisses            0                       # DTB read misses
system.cpu.dtb.stage2_mmu.stage2_tlb.writeHits            0                       # DTB write hits
system.cpu.dtb.stage2_mmu.stage2_tlb.writeMisses            0                       # DTB write misses
system.cpu.dtb.stage2_mmu.stage2_tlb.inserts            0                       # Number of times an entry is inserted into the TLB
system.cpu.dtb.stage2_mmu.stage2_tlb.flushTlb            0                       # Number of times complete TLB was flushed
system.cpu.dtb.stage2_mmu.stage2_tlb.flushTlbMva            0                       # Number of times TLB was flushed by MVA
system.cpu.dtb.stage2_mmu.stage2_tlb.flushTlbMvaAsid            0                       # Number of times TLB was flushed by MVA & ASID
system.cpu.dtb.stage2_mmu.stage2_tlb.flushTlbAsid            0                       # Number of times TLB was flushed by ASID
system.cpu.dtb.stage2_mmu.stage2_tlb.flushedEntries            0                       # Number of entries that have been flushed from TLB
system.cpu.dtb.stage2_mmu.stage2_tlb.alignFaults            0                       # Number of TLB faults due to alignment restrictions
system.cpu.dtb.stage2_mmu.stage2_tlb.prefetchFaults            0                       # Number of TLB faults due to prefetch
system.cpu.dtb.stage2_mmu.stage2_tlb.domainFaults            0                       # Number of TLB faults due to domain restrictions
system.cpu.dtb.stage2_mmu.stage2_tlb.permsFaults            0                       # Number of TLB faults due to permissions restrictions
system.cpu.dtb.stage2_mmu.stage2_tlb.readAccesses            0                       # DTB read accesses
system.cpu.dtb.stage2_mmu.stage2_tlb.writeAccesses            0                       # DTB write accesses
system.cpu.dtb.stage2_mmu.stage2_tlb.instAccesses            0                       # ITB inst accesses
system.cpu.dtb.stage2_mmu.stage2_tlb.hits            0                       # Total TLB (inst and data) hits
system.cpu.dtb.stage2_mmu.stage2_tlb.misses            0                       # Total TLB (inst and data) misses
system.cpu.dtb.stage2_mmu.stage2_tlb.accesses            0                       # Total TLB (inst and data) accesses
system.cpu.dtb.stage2_mmu.stage2_tlb.walker.walks            0                       # Table walker walks requested
system.cpu.dtb.stage2_mmu.stage2_tlb.walker.requestOrigin_Requested::Data            0                       # Table walker requests started/completed, data/inst
system.cpu.dtb.stage2_mmu.stage2_tlb.walker.requestOrigin_Requested::Inst            0                       # Table walker requests started/completed, data/inst
system.cpu.dtb.stage2_mmu.stage2_tlb.walker.requestOrigin_Requested::total            0                       # Table walker requests started/completed, data/inst
system.cpu.dtb.stage2_mmu.stage2_tlb.walker.requestOrigin_Completed::Data            0                       # Table walker requests started/completed, data/inst
system.cpu.dtb.stage2_mmu.stage2_tlb.walker.requestOrigin_Completed::Inst            0                       # Table walker requests started/completed, data/inst
system.cpu.dtb.stage2_mmu.stage2_tlb.walker.requestOrigin_Completed::total            0                       # Table walker requests started/completed, data/inst
system.cpu.dtb.stage2_mmu.stage2_tlb.walker.requestOrigin::total            0                       # Table walker requests started/completed, data/inst
system.cpu.dtb.stage2_mmu.stage2_tlb.walker.power_state.pwrStateResidencyTicks::UNDEFINED 175149002000                       # Cumulative time (in ticks) in various power states
system.cpu.dtb.walker.walks                         0                       # Table walker walks requested
system.cpu.dtb.walker.requestOrigin_Requested::Data            0                       # Table walker requests started/completed, data/inst
system.cpu.dtb.walker.requestOrigin_Requested::Inst            0                       # Table walker requests started/completed, data/inst
system.cpu.dtb.walker.requestOrigin_Requested::total            0                       # Table walker requests started/completed, data/inst
system.cpu.dtb.walker.requestOrigin_Completed::Data            0                       # Table walker requests started/completed, data/inst
system.cpu.dtb.walker.requestOrigin_Completed::Inst            0                       # Table walker requests started/completed, data/inst
system.cpu.dtb.walker.requestOrigin_Completed::total            0                       # Table walker requests started/completed, data/inst
system.cpu.dtb.walker.requestOrigin::total            0                       # Table walker requests started/completed, data/inst
system.cpu.dtb.walker.power_state.pwrStateResidencyTicks::UNDEFINED 175149002000                       # Cumulative time (in ticks) in various power states
system.cpu.fetch2.intInstructions            49669488                       # Number of integer instructions successfully decoded
system.cpu.fetch2.fpInstructions                    0                       # Number of floating point instructions successfully decoded
system.cpu.fetch2.vecInstructions                   0                       # Number of SIMD instructions successfully decoded
system.cpu.fetch2.loadInstructions           37092346                       # Number of memory load instructions successfully decoded
system.cpu.fetch2.storeInstructions          13160998                       # Number of memory store instructions successfully decoded
system.cpu.fetch2.amoInstructions                   0                       # Number of memory atomic instructions successfully decoded
system.cpu.icache.demand_hits::.cpu.inst      6045338                       # number of demand (read+write) hits
system.cpu.icache.demand_hits::total          6045338                       # number of demand (read+write) hits
system.cpu.icache.overall_hits::.cpu.inst      6045338                       # number of overall hits
system.cpu.icache.overall_hits::total         6045338                       # number of overall hits
system.cpu.icache.demand_misses::.cpu.inst          686                       # number of demand (read+write) misses
system.cpu.icache.demand_misses::total            686                       # number of demand (read+write) misses
system.cpu.icache.overall_misses::.cpu.inst          686                       # number of overall misses
system.cpu.icache.overall_misses::total           686                       # number of overall misses
system.cpu.icache.demand_miss_latency::.cpu.inst     40705500                       # number of demand (read+write) miss cycles
system.cpu.icache.demand_miss_latency::total     40705500                       # number of demand (read+write) miss cycles
system.cpu.icache.overall_miss_latency::.cpu.inst     40705500                       # number of overall miss cycles
system.cpu.icache.overall_miss_latency::total     40705500                       # number of overall miss cycles
system.cpu.icache.demand_accesses::.cpu.inst      6046024                       # number of demand (read+write) accesses
system.cpu.icache.demand_accesses::total      6046024                       # number of demand (read+write) accesses
system.cpu.icache.overall_accesses::.cpu.inst      6046024                       # number of overall (read+write) accesses
system.cpu.icache.overall_accesses::total      6046024                       # number of overall (read+write) accesses
system.cpu.icache.demand_miss_rate::.cpu.inst     0.000113                       # miss rate for demand accesses
system.cpu.icache.demand_miss_rate::total     0.000113                       # miss rate for demand accesses
system.cpu.icache.overall_miss_rate::.cpu.inst     0.000113                       # miss rate for overall accesses
system.cpu.icache.overall_miss_rate::total     0.000113                       # miss rate for overall accesses
system.cpu.icache.demand_avg_miss_latency::.cpu.inst 59337.463557                       # average overall miss latency
system.cpu.icache.demand_avg_miss_latency::total 59337.463557                       # average overall miss latency
system.cpu.icache.overall_avg_miss_latency::.cpu.inst 59337.463557                       # average overall miss latency
system.cpu.icache.overall_avg_miss_latency::total 59337.463557                       # average overall miss latency
system.cpu.icache.blocked_cycles::no_mshrs            0                       # number of cycles access was blocked
system.cpu.icache.blocked_cycles::no_targets            0                       # number of cycles access was blocked
system.cpu.icache.blocked::no_mshrs                 0                       # number of cycles access was blocked
system.cpu.icache.blocked::no_targets               0                       # number of cycles access was blocked
system.cpu.icache.avg_blocked_cycles::no_mshrs          nan                       # average number of cycles each access was blocked
system.cpu.icache.avg_blocked_cycles::no_targets          nan                       # average number of cycles each access was blocked
system.cpu.icache.writebacks::.writebacks          378                       # number of writebacks
system.cpu.icache.writebacks::total               378                       # number of writebacks
system.cpu.icache.demand_mshr_misses::.cpu.inst          686                       # number of demand (read+write) MSHR misses
system.cpu.icache.demand_mshr_misses::total          686                       # number of demand (read+write) MSHR misses
system.cpu.icache.overall_mshr_misses::.cpu.inst          686                       # number of overall MSHR misses
system.cpu.icache.overall_mshr_misses::total          686                       # number of overall MSHR misses
system.cpu.icache.demand_mshr_miss_latency::.cpu.inst     40019500                       # number of demand (read+write) MSHR miss cycles
system.cpu.icache.demand_mshr_miss_latency::total     40019500                       # number of demand (read+write) MSHR miss cycles
system.cpu.icache.overall_mshr_miss_latency::.cpu.inst     40019500                       # number of overall MSHR miss cycles
system.cpu.icache.overall_mshr_miss_latency::total     40019500                       # number of overall MSHR miss cycles
system.cpu.icache.demand_mshr_miss_rate::.cpu.inst     0.000113                       # mshr miss rate for demand accesses
system.cpu.icache.demand_mshr_miss_rate::total     0.000113                       # mshr miss rate for demand accesses
system.cpu.icache.overall_mshr_miss_rate::.cpu.inst     0.000113                       # mshr miss rate for overall accesses
system.cpu.icache.overall_mshr_miss_rate::total     0.000113                       # mshr miss rate for overall accesses
system.cpu.icache.demand_avg_mshr_miss_latency::.cpu.inst 58337.463557                       # average overall mshr miss latency
system.cpu.icache.demand_avg_mshr_miss_latency::total 58337.463557                       # average overall mshr miss latency
system.cpu.icache.overall_avg_mshr_miss_latency::.cpu.inst 58337.463557                       # average overall mshr miss latency
system.cpu.icache.overall_avg_mshr_miss_latency::total 58337.463557                       # average overall mshr miss latency
system.cpu.icache.replacements                    378                       # number of replacements
system.cpu.icache.ReadReq_hits::.cpu.inst      6045338                       # number of ReadReq hits
system.cpu.icache.ReadReq_hits::total         6045338                       # number of ReadReq hits
system.cpu.icache.ReadReq_misses::.cpu.inst          686                       # number of ReadReq misses
system.cpu.icache.ReadReq_misses::total           686                       # number of ReadReq misses
system.cpu.icache.ReadReq_miss_latency::.cpu.inst     40705500                       # number of ReadReq miss cycles
system.cpu.icache.ReadReq_miss_latency::total     40705500                       # number of ReadReq miss cycles
system.cpu.icache.ReadReq_accesses::.cpu.inst      6046024                       # number of ReadReq accesses(hits+misses)
system.cpu.icache.ReadReq_accesses::total      6046024                       # number of ReadReq accesses(hits+misses)
system.cpu.icache.ReadReq_miss_rate::.cpu.inst     0.000113                       # miss rate for ReadReq accesses
system.cpu.icache.ReadReq_miss_rate::total     0.000113                       # miss rate for ReadReq accesses
system.cpu.icache.ReadReq_avg_miss_latency::.cpu.inst 59337.463557                       # average ReadReq miss latency
system.cpu.icache.ReadReq_avg_miss_latency::total 59337.463557                       # average ReadReq miss latency
system.cpu.icache.ReadReq_mshr_misses::.cpu.inst          686                       # number of ReadReq MSHR misses
system.cpu.icache.ReadReq_mshr_misses::total          686                       # number of ReadReq MSHR misses
system.cpu.icache.ReadReq_mshr_miss_latency::.cpu.inst     40019500                       # number of ReadReq MSHR miss cycles
system.cpu.icache.ReadReq_mshr_miss_latency::total     40019500                       # number of ReadReq MSHR miss cycles
system.cpu.icache.ReadReq_mshr_miss_rate::.cpu.inst     0.000113                       # mshr miss rate for ReadReq accesses
system.cpu.icache.ReadReq_mshr_miss_rate::total     0.000113                       # mshr miss rate for ReadReq accesses
system.cpu.icache.ReadReq_avg_mshr_miss_latency::.cpu.inst 58337.463557                       # average ReadReq mshr miss latency
system.cpu.icache.ReadReq_avg_mshr_miss_latency::total 58337.463557                       # average ReadReq mshr miss latency
system.cpu.icache.power_state.pwrStateResidencyTicks::UNDEFINED 175149002000                       # Cumulative time (in ticks) in various power states
system.cpu.icache.tags.tagsinuse           307.959482                       # Cycle average of tags in use
system.cpu.icache.tags.total_refs             6046024                       # Total number of references to valid blocks.
system.cpu.icache.tags.sampled_refs               686                       # Sample count of references to valid blocks.
system.cpu.icache.tags.avg_refs           8813.446064                       # Average number of references to valid blocks.
system.cpu.icache.tags.warmup_cycle             87500                       # Cycle when the warmup percentage was hit.
system.cpu.icache.tags.occ_blocks::.cpu.inst   307.959482                       # Average occupied blocks per requestor
system.cpu.icache.tags.occ_percent::.cpu.inst     0.601483                       # Average percentage of cache occupancy
system.cpu.icache.tags.occ_percent::total     0.601483                       # Average percentage of cache occupancy
system.cpu.icache.tags.occ_task_id_blocks::1024          308                       # Occupied blocks per task id
system.cpu.icache.tags.age_task_id_blocks_1024::4          308                       # Occupied blocks per task id
system.cpu.icache.tags.occ_task_id_percent::1024     0.601562                       # Percentage of cache occupancy per task id
system.cpu.icache.tags.tag_accesses           6046710                       # Number of tag accesses
system.cpu.icache.tags.data_accesses          6046710                       # Number of data accesses
system.cpu.icache.tags.power_state.pwrStateResidencyTicks::UNDEFINED 175149002000                       # Cumulative time (in ticks) in various power states
system.cpu.itb.instHits                             0                       # ITB inst hits
system.cpu.itb.instMisses                           0                       # ITB inst misses
system.cpu.itb.readHits                             0                       # DTB read hits
system.cpu.itb.readMisses                           0                       # DTB read misses
system.cpu.itb.writeHits                            0                       # DTB write hits
system.cpu.itb.writeMisses                          0                       # DTB write misses
system.cpu.itb.inserts                              0                       # Number of times an entry is inserted into the TLB
system.cpu.itb.flushTlb                             0                       # Number of times complete TLB was flushed
system.cpu.itb.flushTlbMva                          0                       # Number of times TLB was flushed by MVA
system.cpu.itb.flushTlbMvaAsid                      0                       # Number of times TLB was flushed by MVA & ASID
system.cpu.itb.flushTlbAsid                         0                       # Number of times TLB was flushed by ASID
system.cpu.itb.flushedEntries                       0                       # Number of entries that have been flushed from TLB
system.cpu.itb.alignFaults                          0                       # Number of TLB faults due to alignment restrictions
system.cpu.itb.prefetchFaults                       0                       # Number of TLB faults due to prefetch
system.cpu.itb.domainFaults                         0                       # Number of TLB faults due to domain restrictions
system.cpu.itb.permsFaults                          0                       # Number of TLB faults due to permissions restrictions
system.cpu.itb.readAccesses                         0                       # DTB read accesses
system.cpu.itb.writeAccesses                        0                       # DTB write accesses
system.cpu.itb.instAccesses                         0                       # ITB inst accesses
system.cpu.itb.hits                                 0                       # Total TLB (inst and data) hits
system.cpu.itb.misses                               0                       # Total TLB (inst and data) misses
system.cpu.itb.accesses                             0                       # Total TLB (inst and data) accesses
system.cpu.itb.stage2_mmu.stage2_tlb.instHits            0                       # ITB inst hits
system.cpu.itb.stage2_mmu.stage2_tlb.instMisses            0                       # ITB inst misses
system.cpu.itb.stage2_mmu.stage2_tlb.readHits            0                       # DTB read hits
system.cpu.itb.stage2_mmu.stage2_tlb.readMisses            0                       # DTB read misses
system.cpu.itb.stage2_mmu.stage2_tlb.writeHits            0                       # DTB write hits
system.cpu.itb.stage2_mmu.stage2_tlb.writeMisses            0                       # DTB write misses
system.cpu.itb.stage2_mmu.stage2_tlb.inserts            0                       # Number of times an entry is inserted into the TLB
system.cpu.itb.stage2_mmu.stage2_tlb.flushTlb            0                       # Number of times complete TLB was flushed
system.cpu.itb.stage2_mmu.stage2_tlb.flushTlbMva            0                       # Number of times TLB was flushed by MVA
system.cpu.itb.stage2_mmu.stage2_tlb.flushTlbMvaAsid            0                       # Number of times TLB was flushed by MVA & ASID
system.cpu.itb.stage2_mmu.stage2_tlb.flushTlbAsid            0                       # Number of times TLB was flushed by ASID
system.cpu.itb.stage2_mmu.stage2_tlb.flushedEntries            0                       # Number of entries that have been flushed from TLB
system.cpu.itb.stage2_mmu.stage2_tlb.alignFaults            0                       # Number of TLB faults due to alignment restrictions
system.cpu.itb.stage2_mmu.stage2_tlb.prefetchFaults            0                       # Number of TLB faults due to prefetch
system.cpu.itb.stage2_mmu.stage2_tlb.domainFaults            0                       # Number of TLB faults due to domain restrictions
system.cpu.itb.stage2_mmu.stage2_tlb.permsFaults            0                       # Number of TLB faults due to permissions restrictions
system.cpu.itb.stage2_mmu.stage2_tlb.readAccesses            0                       # DTB read accesses
system.cpu.itb.stage2_mmu.stage2_tlb.writeAccesses            0                       # DTB write accesses
system.cpu.itb.stage2_mmu.stage2_tlb.instAccesses            0                       # ITB inst accesses
system.cpu.itb.stage2_mmu.stage2_tlb.hits            0                       # Total TLB (inst and data) hits
system.cpu.itb.stage2_mmu.stage2_tlb.misses            0                       # Total TLB (inst and data) misses
system.cpu.itb.stage2_mmu.stage2_tlb.accesses            0                       # Total TLB (inst and data) accesses
system.cpu.itb.stage2_mmu.stage2_tlb.walker.walks            0                       # Table walker walks requested
system.cpu.itb.stage2_mmu.stage2_tlb.walker.requestOrigin_Requested::Data            0                       # Table walker requests started/completed, data/inst
system.cpu.itb.stage2_mmu.stage2_tlb.walker.requestOrigin_Requested::Inst            0                       # Table walker requests started/completed, data/inst
system.cpu.itb.stage2_mmu.stage2_tlb.walker.requestOrigin_Requested::total            0                       # Table walker requests started/completed, data/inst
system.cpu.itb.stage2_mmu.stage2_tlb.walker.requestOrigin_Completed::Data            0                       # Table walker requests started/completed, data/inst
system.cpu.itb.stage2_mmu.stage2_tlb.walker.requestOrigin_Completed::Inst            0                       # Table walker requests started/completed, data/inst
system.cpu.itb.stage2_mmu.stage2_tlb.walker.requestOrigin_Completed::total            0                       # Table walker requests started/completed, data/inst
system.cpu.itb.stage2_mmu.stage2_tlb.walker.requestOrigin::total            0                       # Table walker requests started/completed, data/inst
system.cpu.itb.stage2_mmu.stage2_tlb.walker.power_state.pwrStateResidencyTicks::UNDEFINED 175149002000                       # Cumulative time (in ticks) in various power states
system.cpu.itb.walker.walks                         0                       # Table walker walks requested
system.cpu.itb.walker.requestOrigin_Requested::Data            0                       # Table walker requests started/completed, data/inst
system.cpu.itb.walker.requestOrigin_Requested::Inst            0                       # Table walker requests started/completed, data/inst
system.cpu.itb.walker.requestOrigin_Requested::total            0                       # Table walker requests started/completed, data/inst
system.cpu.itb.walker.requestOrigin_Completed::Data            0                       # Table walker requests started/completed, data/inst
system.cpu.itb.walker.requestOrigin_Completed::Inst            0                       # Table walker requests started/completed, data/inst
system.cpu.itb.walker.requestOrigin_Completed::total            0                       # Table walker requests started/completed, data/inst
system.cpu.itb.walker.requestOrigin::total            0                       # Table walker requests started/completed, data/inst
system.cpu.itb.walker.power_state.pwrStateResidencyTicks::UNDEFINED 175149002000                       # Cumulative time (in ticks) in various power states
system.cpu.power_state.pwrStateResidencyTicks::ON 175149002000                       # Cumulative time (in ticks) in various power states
system.cpu.thread0.numInsts                 100000001                       # Number of Instructions committed
system.cpu.thread0.numOps                   100003447                       # Number of Ops committed
system.cpu.thread0.numMemRefs                       0                       # Number of Memory References
system.cpu_clk_domain.clock                       500                       # Clock period in ticks
system.cpu_voltage_domain.voltage                   1                       # Voltage in Volts
system.l2.demand_hits::.cpu.inst                  191                       # number of demand (read+write) hits
system.l2.demand_hits::.cpu.data                   13                       # number of demand (read+write) hits
system.l2.demand_hits::total                      204                       # number of demand (read+write) hits
system.l2.overall_hits::.cpu.inst                 191                       # number of overall hits
system.l2.overall_hits::.cpu.data                  13                       # number of overall hits
system.l2.overall_hits::total                     204                       # number of overall hits
system.l2.demand_misses::.cpu.inst                495                       # number of demand (read+write) misses
system.l2.demand_misses::.cpu.data            1487602                       # number of demand (read+write) misses
system.l2.demand_misses::total                1488097                       # number of demand (read+write) misses
system.l2.overall_misses::.cpu.inst               495                       # number of overall misses
system.l2.overall_misses::.cpu.data           1487602                       # number of overall misses
system.l2.overall_misses::total               1488097                       # number of overall misses
system.l2.demand_miss_latency::.cpu.inst     36963000                       # number of demand (read+write) miss cycles
system.l2.demand_miss_latency::.cpu.data 119240970000                       # number of demand (read+write) miss cycles
system.l2.demand_miss_latency::total     119277933000                       # number of demand (read+write) miss cycles
system.l2.overall_miss_latency::.cpu.inst     36963000                       # number of overall miss cycles
system.l2.overall_miss_latency::.cpu.data 119240970000                       # number of overall miss cycles
system.l2.overall_miss_latency::total    119277933000                       # number of overall miss cycles
system.l2.demand_accesses::.cpu.inst              686                       # number of demand (read+write) accesses
system.l2.demand_accesses::.cpu.data          1487615                       # number of demand (read+write) accesses
system.l2.demand_accesses::total              1488301                       # number of demand (read+write) accesses
system.l2.overall_accesses::.cpu.inst             686                       # number of overall (read+write) accesses
system.l2.overall_accesses::.cpu.data         1487615                       # number of overall (read+write) accesses
system.l2.overall_accesses::total             1488301                       # number of overall (read+write) accesses
system.l2.demand_miss_rate::.cpu.inst        0.721574                       # miss rate for demand accesses
system.l2.demand_miss_rate::.cpu.data        0.999991                       # miss rate for demand accesses
system.l2.demand_miss_rate::total            0.999863                       # miss rate for demand accesses
system.l2.overall_miss_rate::.cpu.inst       0.721574                       # miss rate for overall accesses
system.l2.overall_miss_rate::.cpu.data       0.999991                       # miss rate for overall accesses
system.l2.overall_miss_rate::total           0.999863                       # miss rate for overall accesses
system.l2.demand_avg_miss_latency::.cpu.inst 74672.727273                       # average overall miss latency
system.l2.demand_avg_miss_latency::.cpu.data 80156.500193                       # average overall miss latency
system.l2.demand_avg_miss_latency::total 80154.676073                       # average overall miss latency
system.l2.overall_avg_miss_latency::.cpu.inst 74672.727273                       # average overall miss latency
system.l2.overall_avg_miss_latency::.cpu.data 80156.500193                       # average overall miss latency
system.l2.overall_avg_miss_latency::total 80154.676073                       # average overall miss latency
system.l2.blocked_cycles::no_mshrs                  0                       # number of cycles access was blocked
system.l2.blocked_cycles::no_targets                0                       # number of cycles access was blocked
system.l2.blocked::no_mshrs                         0                       # number of cycles access was blocked
system.l2.blocked::no_targets                       0                       # number of cycles access was blocked
system.l2.avg_blocked_cycles::no_mshrs            nan                       # average number of cycles each access was blocked
system.l2.avg_blocked_cycles::no_targets          nan                       # average number of cycles each access was blocked
system.l2.writebacks::.writebacks             1454742                       # number of writebacks
system.l2.writebacks::total                   1454742                       # number of writebacks
system.l2.demand_mshr_hits::.cpu.inst               2                       # number of demand (read+write) MSHR hits
system.l2.demand_mshr_hits::.cpu.data               1                       # number of demand (read+write) MSHR hits
system.l2.demand_mshr_hits::total                   3                       # number of demand (read+write) MSHR hits
system.l2.overall_mshr_hits::.cpu.inst              2                       # number of overall MSHR hits
system.l2.overall_mshr_hits::.cpu.data              1                       # number of overall MSHR hits
system.l2.overall_mshr_hits::total                  3                       # number of overall MSHR hits
system.l2.demand_mshr_misses::.cpu.inst           493                       # number of demand (read+write) MSHR misses
system.l2.demand_mshr_misses::.cpu.data       1487601                       # number of demand (read+write) MSHR misses
system.l2.demand_mshr_misses::total           1488094                       # number of demand (read+write) MSHR misses
system.l2.overall_mshr_misses::.cpu.inst          493                       # number of overall MSHR misses
system.l2.overall_mshr_misses::.cpu.data      1487601                       # number of overall MSHR misses
system.l2.overall_mshr_misses::total          1488094                       # number of overall MSHR misses
system.l2.demand_mshr_miss_latency::.cpu.inst     31911500                       # number of demand (read+write) MSHR miss cycles
system.l2.demand_mshr_miss_latency::.cpu.data 104364899000                       # number of demand (read+write) MSHR miss cycles
system.l2.demand_mshr_miss_latency::total 104396810500                       # number of demand (read+write) MSHR miss cycles
system.l2.overall_mshr_miss_latency::.cpu.inst     31911500                       # number of overall MSHR miss cycles
system.l2.overall_mshr_miss_latency::.cpu.data 104364899000                       # number of overall MSHR miss cycles
system.l2.overall_mshr_miss_latency::total 104396810500                       # number of overall MSHR miss cycles
system.l2.demand_mshr_miss_rate::.cpu.inst     0.718659                       # mshr miss rate for demand accesses
system.l2.demand_mshr_miss_rate::.cpu.data     0.999991                       # mshr miss rate for demand accesses
system.l2.demand_mshr_miss_rate::total       0.999861                       # mshr miss rate for demand accesses
system.l2.overall_mshr_miss_rate::.cpu.inst     0.718659                       # mshr miss rate for overall accesses
system.l2.overall_mshr_miss_rate::.cpu.data     0.999991                       # mshr miss rate for overall accesses
system.l2.overall_mshr_miss_rate::total      0.999861                       # mshr miss rate for overall accesses
system.l2.demand_avg_mshr_miss_latency::.cpu.inst 64729.208925                       # average overall mshr miss latency
system.l2.demand_avg_mshr_miss_latency::.cpu.data 70156.513070                       # average overall mshr miss latency
system.l2.demand_avg_mshr_miss_latency::total 70154.715025                       # average overall mshr miss latency
system.l2.overall_avg_mshr_miss_latency::.cpu.inst 64729.208925                       # average overall mshr miss latency
system.l2.overall_avg_mshr_miss_latency::.cpu.data 70156.513070                       # average overall mshr miss latency
system.l2.overall_avg_mshr_miss_latency::total 70154.715025                       # average overall mshr miss latency
system.l2.replacements                        1455326                       # number of replacements
system.l2.WritebackDirty_hits::.writebacks      1486489                       # number of WritebackDirty hits
system.l2.WritebackDirty_hits::total          1486489                       # number of WritebackDirty hits
system.l2.WritebackDirty_accesses::.writebacks      1486489                       # number of WritebackDirty accesses(hits+misses)
system.l2.WritebackDirty_accesses::total      1486489                       # number of WritebackDirty accesses(hits+misses)
system.l2.WritebackClean_hits::.writebacks          363                       # number of WritebackClean hits
system.l2.WritebackClean_hits::total              363                       # number of WritebackClean hits
system.l2.WritebackClean_accesses::.writebacks          363                       # number of WritebackClean accesses(hits+misses)
system.l2.WritebackClean_accesses::total          363                       # number of WritebackClean accesses(hits+misses)
system.l2.ReadExReq_misses::.cpu.data         1487496                       # number of ReadExReq misses
system.l2.ReadExReq_misses::total             1487496                       # number of ReadExReq misses
system.l2.ReadExReq_miss_latency::.cpu.data 119232412500                       # number of ReadExReq miss cycles
system.l2.ReadExReq_miss_latency::total  119232412500                       # number of ReadExReq miss cycles
system.l2.ReadExReq_accesses::.cpu.data       1487496                       # number of ReadExReq accesses(hits+misses)
system.l2.ReadExReq_accesses::total           1487496                       # number of ReadExReq accesses(hits+misses)
system.l2.ReadExReq_miss_rate::.cpu.data            1                       # miss rate for ReadExReq accesses
system.l2.ReadExReq_miss_rate::total                1                       # miss rate for ReadExReq accesses
system.l2.ReadExReq_avg_miss_latency::.cpu.data 80156.459244                       # average ReadExReq miss latency
system.l2.ReadExReq_avg_miss_latency::total 80156.459244                       # average ReadExReq miss latency
system.l2.ReadExReq_mshr_misses::.cpu.data      1487496                       # number of ReadExReq MSHR misses
system.l2.ReadExReq_mshr_misses::total        1487496                       # number of ReadExReq MSHR misses
system.l2.ReadExReq_mshr_miss_latency::.cpu.data 104357452500                       # number of ReadExReq MSHR miss cycles
system.l2.ReadExReq_mshr_miss_latency::total 104357452500                       # number of ReadExReq MSHR miss cycles
system.l2.ReadExReq_mshr_miss_rate::.cpu.data            1                       # mshr miss rate for ReadExReq accesses
system.l2.ReadExReq_mshr_miss_rate::total            1                       # mshr miss rate for ReadExReq accesses
system.l2.ReadExReq_avg_mshr_miss_latency::.cpu.data 70156.459244                       # average ReadExReq mshr miss latency
system.l2.ReadExReq_avg_mshr_miss_latency::total 70156.459244                       # average ReadExReq mshr miss latency
system.l2.ReadCleanReq_hits::.cpu.inst            191                       # number of ReadCleanReq hits
system.l2.ReadCleanReq_hits::total                191                       # number of ReadCleanReq hits
system.l2.ReadCleanReq_misses::.cpu.inst          495                       # number of ReadCleanReq misses
system.l2.ReadCleanReq_misses::total              495                       # number of ReadCleanReq misses
system.l2.ReadCleanReq_miss_latency::.cpu.inst     36963000                       # number of ReadCleanReq miss cycles
system.l2.ReadCleanReq_miss_latency::total     36963000                       # number of ReadCleanReq miss cycles
system.l2.ReadCleanReq_accesses::.cpu.inst          686                       # number of ReadCleanReq accesses(hits+misses)
system.l2.ReadCleanReq_accesses::total            686                       # number of ReadCleanReq accesses(hits+misses)
system.l2.ReadCleanReq_miss_rate::.cpu.inst     0.721574                       # miss rate for ReadCleanReq accesses
system.l2.ReadCleanReq_miss_rate::total      0.721574                       # miss rate for ReadCleanReq accesses
system.l2.ReadCleanReq_avg_miss_latency::.cpu.inst 74672.727273                       # average ReadCleanReq miss latency
system.l2.ReadCleanReq_avg_miss_latency::total 74672.727273                       # average ReadCleanReq miss latency
system.l2.ReadCleanReq_mshr_hits::.cpu.inst            2                       # number of ReadCleanReq MSHR hits
system.l2.ReadCleanReq_mshr_hits::total             2                       # number of ReadCleanReq MSHR hits
system.l2.ReadCleanReq_mshr_misses::.cpu.inst          493                       # number of ReadCleanReq MSHR misses
system.l2.ReadCleanReq_mshr_misses::total          493                       # number of ReadCleanReq MSHR misses
system.l2.ReadCleanReq_mshr_miss_latency::.cpu.inst     31911500                       # number of ReadCleanReq MSHR miss cycles
system.l2.ReadCleanReq_mshr_miss_latency::total     31911500                       # number of ReadCleanReq MSHR miss cycles
system.l2.ReadCleanReq_mshr_miss_rate::.cpu.inst     0.718659                       # mshr miss rate for ReadCleanReq accesses
system.l2.ReadCleanReq_mshr_miss_rate::total     0.718659                       # mshr miss rate for ReadCleanReq accesses
system.l2.ReadCleanReq_avg_mshr_miss_latency::.cpu.inst 64729.208925                       # average ReadCleanReq mshr miss latency
system.l2.ReadCleanReq_avg_mshr_miss_latency::total 64729.208925                       # average ReadCleanReq mshr miss latency
system.l2.ReadSharedReq_hits::.cpu.data            13                       # number of ReadSharedReq hits
system.l2.ReadSharedReq_hits::total                13                       # number of ReadSharedReq hits
system.l2.ReadSharedReq_misses::.cpu.data          106                       # number of ReadSharedReq misses
system.l2.ReadSharedReq_misses::total             106                       # number of ReadSharedReq misses
system.l2.ReadSharedReq_miss_latency::.cpu.data      8557500                       # number of ReadSharedReq miss cycles
system.l2.ReadSharedReq_miss_latency::total      8557500                       # number of ReadSharedReq miss cycles
system.l2.ReadSharedReq_accesses::.cpu.data          119                       # number of ReadSharedReq accesses(hits+misses)
system.l2.ReadSharedReq_accesses::total           119                       # number of ReadSharedReq accesses(hits+misses)
system.l2.ReadSharedReq_miss_rate::.cpu.data     0.890756                       # miss rate for ReadSharedReq accesses
system.l2.ReadSharedReq_miss_rate::total     0.890756                       # miss rate for ReadSharedReq accesses
system.l2.ReadSharedReq_avg_miss_latency::.cpu.data 80731.132075                       # average ReadSharedReq miss latency
system.l2.ReadSharedReq_avg_miss_latency::total 80731.132075                       # average ReadSharedReq miss latency
system.l2.ReadSharedReq_mshr_hits::.cpu.data            1                       # number of ReadSharedReq MSHR hits
system.l2.ReadSharedReq_mshr_hits::total            1                       # number of ReadSharedReq MSHR hits
system.l2.ReadSharedReq_mshr_misses::.cpu.data          105                       # number of ReadSharedReq MSHR misses
system.l2.ReadSharedReq_mshr_misses::total          105                       # number of ReadSharedReq MSHR misses
system.l2.ReadSharedReq_mshr_miss_latency::.cpu.data      7446500                       # number of ReadSharedReq MSHR miss cycles
system.l2.ReadSharedReq_mshr_miss_latency::total      7446500                       # number of ReadSharedReq MSHR miss cycles
system.l2.ReadSharedReq_mshr_miss_rate::.cpu.data     0.882353                       # mshr miss rate for ReadSharedReq accesses
system.l2.ReadSharedReq_mshr_miss_rate::total     0.882353                       # mshr miss rate for ReadSharedReq accesses
system.l2.ReadSharedReq_avg_mshr_miss_latency::.cpu.data 70919.047619                       # average ReadSharedReq mshr miss latency
system.l2.ReadSharedReq_avg_mshr_miss_latency::total 70919.047619                       # average ReadSharedReq mshr miss latency
system.l2.power_state.pwrStateResidencyTicks::UNDEFINED 175149002000                       # Cumulative time (in ticks) in various power states
system.l2.tags.tagsinuse                 32429.168613                       # Cycle average of tags in use
system.l2.tags.total_refs                     2975232                       # Total number of references to valid blocks.
system.l2.tags.sampled_refs                   1488094                       # Sample count of references to valid blocks.
system.l2.tags.avg_refs                      1.999358                       # Average number of references to valid blocks.
system.l2.tags.warmup_cycle                     77000                       # Cycle when the warmup percentage was hit.
system.l2.tags.occ_blocks::.cpu.inst         9.845296                       # Average occupied blocks per requestor
system.l2.tags.occ_blocks::.cpu.data     32419.323317                       # Average occupied blocks per requestor
system.l2.tags.occ_percent::.cpu.inst        0.000300                       # Average percentage of cache occupancy
system.l2.tags.occ_percent::.cpu.data        0.989359                       # Average percentage of cache occupancy
system.l2.tags.occ_percent::total            0.989660                       # Average percentage of cache occupancy
system.l2.tags.occ_task_id_blocks::1024         32768                       # Occupied blocks per task id
system.l2.tags.age_task_id_blocks_1024::0           85                       # Occupied blocks per task id
system.l2.tags.age_task_id_blocks_1024::1          765                       # Occupied blocks per task id
system.l2.tags.age_task_id_blocks_1024::2         7635                       # Occupied blocks per task id
system.l2.tags.age_task_id_blocks_1024::3        24283                       # Occupied blocks per task id
system.l2.tags.occ_task_id_percent::1024            1                       # Percentage of cache occupancy per task id
system.l2.tags.tag_accesses                  25289974                       # Number of tag accesses
system.l2.tags.data_accesses                 25289974                       # Number of data accesses
system.l2.tags.power_state.pwrStateResidencyTicks::UNDEFINED 175149002000                       # Cumulative time (in ticks) in various power states
system.mem_ctrls.avgPriority_.writebacks::samples   1454742.00                       # Average QoS priority value for accepted requests
system.mem_ctrls.avgPriority_.cpu.inst::samples       493.00                       # Average QoS priority value for accepted requests
system.mem_ctrls.avgPriority_.cpu.data::samples   1487601.00                       # Average QoS priority value for accepted requests
system.mem_ctrls.priorityMinLatency      0.000000018750                       # per QoS priority minimum request to response latency (s)
system.mem_ctrls.priorityMaxLatency      0.000059708500                       # per QoS priority maximum request to response latency (s)
system.mem_ctrls.numReadWriteTurnArounds        90920                       # Number of turnarounds from READ to WRITE
system.mem_ctrls.numWriteReadTurnArounds        90920                       # Number of turnarounds from WRITE to READ
system.mem_ctrls.numStayReadState             4384639                       # Number of times bus staying in READ state
system.mem_ctrls.numStayWriteState            1364334                       # Number of times bus staying in WRITE state
system.mem_ctrls.readReqs                     1488094                       # Number of read requests accepted
system.mem_ctrls.writeReqs                    1454742                       # Number of write requests accepted
system.mem_ctrls.readBursts                   1488094                       # Number of controller read bursts, including those serviced by the write queue
system.mem_ctrls.writeBursts                  1454742                       # Number of controller write bursts, including those merged in the write queue
system.mem_ctrls.servicedByWrQ                      0                       # Number of controller read bursts serviced by the write queue
system.mem_ctrls.mergedWrBursts                     0                       # Number of controller write bursts merged with an existing one
system.mem_ctrls.neitherReadNorWriteReqs            0                       # Number of requests that are neither read nor write
system.mem_ctrls.avgRdQLen                       1.00                       # Average read queue length when enqueuing
system.mem_ctrls.avgWrQLen                      25.35                       # Average write queue length when enqueuing
system.mem_ctrls.numRdRetry                         0                       # Number of times read queue was full causing retry
system.mem_ctrls.numWrRetry                         0                       # Number of times write queue was full causing retry
system.mem_ctrls.readPktSize::0                     0                       # Read request sizes (log2)
system.mem_ctrls.readPktSize::1                     0                       # Read request sizes (log2)
system.mem_ctrls.readPktSize::2                     0                       # Read request sizes (log2)
system.mem_ctrls.readPktSize::3                     0                       # Read request sizes (log2)
system.mem_ctrls.readPktSize::4                     0                       # Read request sizes (log2)
system.mem_ctrls.readPktSize::5                     0                       # Read request sizes (log2)
system.mem_ctrls.readPktSize::6               1488094                       # Read request sizes (log2)
system.mem_ctrls.writePktSize::0                    0                       # Write request sizes (log2)
system.mem_ctrls.writePktSize::1                    0                       # Write request sizes (log2)
system.mem_ctrls.writePktSize::2                    0                       # Write request sizes (log2)
[...]
system.mem_ctrls.dram.bw_write::.writebacks    531567334                       # Write bandwidth from this memory (bytes/s)
system.mem_ctrls.dram.bw_write::total       531567334                       # Write bandwidth from this memory (bytes/s)
system.mem_ctrls.dram.bw_total::.writebacks    531567334                       # Total bandwidth to/from this memory (bytes/s)
system.mem_ctrls.dram.bw_total::.cpu.inst       180144                       # Total bandwidth to/from this memory (bytes/s)
system.mem_ctrls.dram.bw_total::.cpu.data    543574116                       # Total bandwidth to/from this memory (bytes/s)
system.mem_ctrls.dram.bw_total::total      1075321594                       # Total bandwidth to/from this memory (bytes/s)
system.mem_ctrls.dram.readBursts              1488094                       # Number of DRAM read bursts
system.mem_ctrls.dram.writeBursts             1454720                       # Number of DRAM write bursts
system.mem_ctrls.dram.perBankRdBursts::0        92997                       # Per bank write bursts
system.mem_ctrls.dram.perBankRdBursts::1        92977                       # Per bank write bursts
system.mem_ctrls.dram.perBankRdBursts::2        93052                       # Per bank write bursts
system.mem_ctrls.dram.perBankRdBursts::3        93022                       # Per bank write bursts
system.mem_ctrls.dram.perBankRdBursts::4        93096                       # Per bank write bursts
system.mem_ctrls.dram.perBankRdBursts::5        93064                       # Per bank write bursts
system.mem_ctrls.dram.perBankRdBursts::6        93082                       # Per bank write bursts
system.mem_ctrls.dram.perBankRdBursts::7        93068                       # Per bank write bursts
system.mem_ctrls.dram.perBankRdBursts::8        92999                       # Per bank write bursts
system.mem_ctrls.dram.perBankRdBursts::9        92948                       # Per bank write bursts
system.mem_ctrls.dram.perBankRdBursts::10        92965                       # Per bank write bursts
system.mem_ctrls.dram.perBankRdBursts::11        92952                       # Per bank write bursts
system.mem_ctrls.dram.perBankRdBursts::12        93013                       # Per bank write bursts
system.mem_ctrls.dram.perBankRdBursts::13        92931                       # Per bank write bursts
system.mem_ctrls.dram.perBankRdBursts::14        92945                       # Per bank write bursts
system.mem_ctrls.dram.perBankRdBursts::15        92983                       # Per bank write bursts
system.mem_ctrls.dram.perBankWrBursts::0        90902                       # Per bank write bursts
system.mem_ctrls.dram.perBankWrBursts::1        90895                       # Per bank write bursts
system.mem_ctrls.dram.perBankWrBursts::2        90885                       # Per bank write bursts
system.mem_ctrls.dram.perBankWrBursts::3        90945                       # Per bank write bursts
system.mem_ctrls.dram.perBankWrBursts::4        91008                       # Per bank write bursts
system.mem_ctrls.dram.perBankWrBursts::5        91008                       # Per bank write bursts
system.mem_ctrls.dram.perBankWrBursts::6        91008                       # Per bank write bursts
system.mem_ctrls.dram.perBankWrBursts::7        90987                       # Per bank write bursts
system.mem_ctrls.dram.perBankWrBursts::8        90880                       # Per bank write bursts
system.mem_ctrls.dram.perBankWrBursts::9        90880                       # Per bank write bursts
system.mem_ctrls.dram.perBankWrBursts::10        90880                       # Per bank write bursts
system.mem_ctrls.dram.perBankWrBursts::11        90880                       # Per bank write bursts
system.mem_ctrls.dram.perBankWrBursts::12        90880                       # Per bank write bursts
system.mem_ctrls.dram.perBankWrBursts::13        90880                       # Per bank write bursts
system.mem_ctrls.dram.perBankWrBursts::14        90883                       # Per bank write bursts
system.mem_ctrls.dram.perBankWrBursts::15        90919                       # Per bank write bursts
system.mem_ctrls.dram.totQLat             15234967000                       # Total ticks spent queuing
system.mem_ctrls.dram.totBusLat            7440470000                       # Total ticks spent in databus transfers
system.mem_ctrls.dram.totMemAccLat        43136729500                       # Total ticks spent from burst creation until serviced by the DRAM
system.mem_ctrls.dram.avgQLat                10237.91                       # Average queueing delay per DRAM burst
system.mem_ctrls.dram.avgBusLat               5000.00                       # Average bus latency per DRAM burst
system.mem_ctrls.dram.avgMemAccLat           28987.91                       # Average memory access latency per DRAM burst
system.mem_ctrls.dram.readRowHits             1362104                       # Number of row buffer hits during reads
system.mem_ctrls.dram.writeRowHits            1352255                       # Number of row buffer hits during writes
system.mem_ctrls.dram.readRowHitRate            91.53                       # Row buffer hit rate for reads
system.mem_ctrls.dram.writeRowHitRate           92.96                       # Row buffer hit rate for writes
system.mem_ctrls.dram.bytesPerActivate::samples       228453                       # Bytes accessed per row activation
system.mem_ctrls.dram.bytesPerActivate::mean   824.413669                       # Bytes accessed per row activation
system.mem_ctrls.dram.bytesPerActivate::gmean   721.147918                       # Bytes accessed per row activation
system.mem_ctrls.dram.bytesPerActivate::stdev   304.303521                       # Bytes accessed per row activation
system.mem_ctrls.dram.bytesPerActivate::0-127         6317      2.77%      2.77% # Bytes accessed per row activation
system.mem_ctrls.dram.bytesPerActivate::128-255         5790      2.53%      5.30% # Bytes accessed per row activation
system.mem_ctrls.dram.bytesPerActivate::256-383        27942     12.23%     17.53% # Bytes accessed per row activation
system.mem_ctrls.dram.bytesPerActivate::384-511         5254      2.30%     19.83% # Bytes accessed per row activation
system.mem_ctrls.dram.bytesPerActivate::512-639         5604      2.45%     22.28% # Bytes accessed per row activation
system.mem_ctrls.dram.bytesPerActivate::640-767        17252      7.55%     29.84% # Bytes accessed per row activation
system.mem_ctrls.dram.bytesPerActivate::768-895        11639      5.09%     34.93% # Bytes accessed per row activation
system.mem_ctrls.dram.bytesPerActivate::896-1023         5570      2.44%     37.37% # Bytes accessed per row activation
system.mem_ctrls.dram.bytesPerActivate::1024-1151       143085     62.63%    100.00% # Bytes accessed per row activation
system.mem_ctrls.dram.bytesPerActivate::total       228453                       # Bytes accessed per row activation
system.mem_ctrls.dram.bytesRead              95238016                       # Total number of bytes read from DRAM
system.mem_ctrls.dram.bytesWritten           93102080                       # Total number of bytes written to DRAM
system.mem_ctrls.dram.avgRdBW              543.754260                       # Average DRAM read bandwidth in MiBytes/s
system.mem_ctrls.dram.avgWrBW              531.559295                       # Average DRAM write bandwidth in MiBytes/s
system.mem_ctrls.dram.peakBW                 12800.00                       # Theoretical peak bandwidth in MiByte/s
system.mem_ctrls.dram.busUtil                    8.40                       # Data bus utilization in percentage
system.mem_ctrls.dram.busUtilRead                4.25                       # Data bus utilization in percentage for reads
system.mem_ctrls.dram.busUtilWrite               4.15                       # Data bus utilization in percentage for writes
system.mem_ctrls.dram.pageHitRate               92.24                       # Row buffer hit rate, read and write combined
system.mem_ctrls.dram.power_state.pwrStateResidencyTicks::UNDEFINED 175149002000                       # Cumulative time (in ticks) in various power states
system.mem_ctrls.dram.rank0.actEnergy       810918360                       # Energy for activate commands per rank (pJ)
system.mem_ctrls.dram.rank0.preEnergy       431009535                       # Energy for precharge commands per rank (pJ)
system.mem_ctrls.dram.rank0.readEnergy     5314716120                       # Energy for read commands per rank (pJ)
system.mem_ctrls.dram.rank0.writeEnergy    3798270360                       # Energy for write commands per rank (pJ)
system.mem_ctrls.dram.rank0.refreshEnergy 13825712160.000002                       # Energy for refresh commands per rank (pJ)
system.mem_ctrls.dram.rank0.actBackEnergy  43044225450                       # Energy for active background per rank (pJ)
system.mem_ctrls.dram.rank0.preBackEnergy  31009448160                       # Energy for precharge background per rank (pJ)
system.mem_ctrls.dram.rank0.actPowerDownEnergy            0                       # Energy for active power-down per rank (pJ)
system.mem_ctrls.dram.rank0.prePowerDownEnergy            0                       # Energy for precharge power-down per rank (pJ)
system.mem_ctrls.dram.rank0.selfRefreshEnergy            0                       # Energy for self refresh per rank (pJ)
system.mem_ctrls.dram.rank0.totalEnergy   98234300145                       # Total energy per rank (pJ)
system.mem_ctrls.dram.rank0.averagePower   560.861318                       # Core power per rank (mW)
system.mem_ctrls.dram.rank0.totalIdleTime            0                       # Total Idle time Per DRAM Rank
system.mem_ctrls.dram.rank0.pwrStateTime::IDLE  79562238250                       # Time in different power states
system.mem_ctrls.dram.rank0.pwrStateTime::REF   5848440000                       # Time in different power states
system.mem_ctrls.dram.rank0.pwrStateTime::SREF            0                       # Time in different power states
system.mem_ctrls.dram.rank0.pwrStateTime::PRE_PDN            0                       # Time in different power states
system.mem_ctrls.dram.rank0.pwrStateTime::ACT  89738323750                       # Time in different power states
system.mem_ctrls.dram.rank0.pwrStateTime::ACT_PDN            0                       # Time in different power states
system.mem_ctrls.dram.rank1.actEnergy       820250340                       # Energy for activate commands per rank (pJ)
system.mem_ctrls.dram.rank1.preEnergy       435969600                       # Energy for precharge commands per rank (pJ)
system.mem_ctrls.dram.rank1.readEnergy     5310275040                       # Energy for read commands per rank (pJ)
system.mem_ctrls.dram.rank1.writeEnergy    3795368040                       # Energy for write commands per rank (pJ)
system.mem_ctrls.dram.rank1.refreshEnergy 13825712160.000002                       # Energy for refresh commands per rank (pJ)
system.mem_ctrls.dram.rank1.actBackEnergy  41586823230                       # Energy for active background per rank (pJ)
system.mem_ctrls.dram.rank1.preBackEnergy  32236734240                       # Energy for precharge background per rank (pJ)
system.mem_ctrls.dram.rank1.actPowerDownEnergy            0                       # Energy for active power-down per rank (pJ)
system.mem_ctrls.dram.rank1.prePowerDownEnergy            0                       # Energy for precharge power-down per rank (pJ)
system.mem_ctrls.dram.rank1.selfRefreshEnergy            0                       # Energy for self refresh per rank (pJ)
system.mem_ctrls.dram.rank1.totalEnergy   98011132650                       # Total energy per rank (pJ)
system.mem_ctrls.dram.rank1.averagePower   559.587160                       # Core power per rank (mW)
system.mem_ctrls.dram.rank1.totalIdleTime            0                       # Total Idle time Per DRAM Rank
system.mem_ctrls.dram.rank1.pwrStateTime::IDLE  82465609500                       # Time in different power states
system.mem_ctrls.dram.rank1.pwrStateTime::REF   5848440000                       # Time in different power states
system.mem_ctrls.dram.rank1.pwrStateTime::SREF            0                       # Time in different power states
system.mem_ctrls.dram.rank1.pwrStateTime::PRE_PDN            0                       # Time in different power states
system.mem_ctrls.dram.rank1.pwrStateTime::ACT  86834952500                       # Time in different power states
system.mem_ctrls.dram.rank1.pwrStateTime::ACT_PDN            0                       # Time in different power states
system.mem_ctrls.power_state.pwrStateResidencyTicks::UNDEFINED 175149002000                       # Cumulative time (in ticks) in various power states
system.membus.trans_dist::ReadResp                598                       # Transaction distribution
system.membus.trans_dist::WritebackDirty      1454742                       # Transaction distribution
system.membus.trans_dist::CleanEvict              274                       # Transaction distribution
system.membus.trans_dist::ReadExReq           1487496                       # Transaction distribution
system.membus.trans_dist::ReadExResp          1487496                       # Transaction distribution
system.membus.trans_dist::ReadSharedReq           598                       # Transaction distribution
system.membus.pkt_count_system.l2.mem_side_port::system.mem_ctrls.port      4431204                       # Packet count per connected requestor and responder (bytes)
system.membus.pkt_count::total                4431204                       # Packet count per connected requestor and responder (bytes)
system.membus.pkt_size_system.l2.mem_side_port::system.mem_ctrls.port    188341504                       # Cumulative packet size per connected requestor and responder (bytes)
system.membus.pkt_size::total               188341504                       # Cumulative packet size per connected requestor and responder (bytes)
system.membus.snoops                                0                       # Total snoops (count)
system.membus.snoopTraffic                          0                       # Total snoop traffic (bytes)
system.membus.snoop_fanout::samples           1488094                       # Request fanout histogram
system.membus.snoop_fanout::mean                    0                       # Request fanout histogram
system.membus.snoop_fanout::stdev                   0                       # Request fanout histogram
system.membus.snoop_fanout::underflows              0      0.00%      0.00% # Request fanout histogram
system.membus.snoop_fanout::0                 1488094    100.00%    100.00% # Request fanout histogram
system.membus.snoop_fanout::1                       0      0.00%    100.00% # Request fanout histogram
system.membus.snoop_fanout::overflows               0      0.00%    100.00% # Request fanout histogram
system.membus.snoop_fanout::min_value               0                       # Request fanout histogram
system.membus.snoop_fanout::max_value               0                       # Request fanout histogram
system.membus.snoop_fanout::total             1488094                       # Request fanout histogram
system.membus.power_state.pwrStateResidencyTicks::UNDEFINED 175149002000                       # Cumulative time (in ticks) in various power states
system.membus.reqLayer0.occupancy          9352495500                       # Layer occupancy (ticks)
system.membus.reqLayer0.utilization               5.3                       # Layer utilization (%)
system.membus.respLayer1.occupancy         7842306000                       # Layer occupancy (ticks)
system.membus.respLayer1.utilization              4.5                       # Layer utilization (%)
system.tol2bus.trans_dist::ReadResp               805                       # Transaction distribution
system.tol2bus.trans_dist::WritebackDirty      2941231                       # Transaction distribution
system.tol2bus.trans_dist::WritebackClean          378                       # Transaction distribution
system.tol2bus.trans_dist::CleanEvict             686                       # Transaction distribution
system.tol2bus.trans_dist::ReadExReq          1487496                       # Transaction distribution
system.tol2bus.trans_dist::ReadExResp         1487496                       # Transaction distribution
system.tol2bus.trans_dist::ReadCleanReq           686                       # Transaction distribution
system.tol2bus.trans_dist::ReadSharedReq          119                       # Transaction distribution
system.tol2bus.pkt_count_system.cpu.icache.mem_side_port::system.l2.cpu_side_port         1750                       # Packet count per connected requestor and responder (bytes)
system.tol2bus.pkt_count_system.cpu.dcache.mem_side_port::system.l2.cpu_side_port      4461821                       # Packet count per connected requestor and responder (bytes)
system.tol2bus.pkt_count::total               4463571                       # Packet count per connected requestor and responder (bytes)
system.tol2bus.pkt_size_system.cpu.icache.mem_side_port::system.l2.cpu_side_port        68096                       # Cumulative packet size per connected requestor and responder (bytes)
system.tol2bus.pkt_size_system.cpu.dcache.mem_side_port::system.l2.cpu_side_port    190342656                       # Cumulative packet size per connected requestor and responder (bytes)
system.tol2bus.pkt_size::total              190410752                       # Cumulative packet size per connected requestor and responder (bytes)
system.tol2bus.snoops                         1455326                       # Total snoops (count)
system.tol2bus.snoopTraffic                  93103488                       # Total snoop traffic (bytes)
system.tol2bus.snoop_fanout::samples          2943627                       # Request fanout histogram
system.tol2bus.snoop_fanout::mean            0.000118                       # Request fanout histogram
system.tol2bus.snoop_fanout::stdev           0.010888                       # Request fanout histogram
system.tol2bus.snoop_fanout::underflows             0      0.00%      0.00% # Request fanout histogram
system.tol2bus.snoop_fanout::0                2943281     99.99%     99.99% # Request fanout histogram
system.tol2bus.snoop_fanout::1                    345      0.01%    100.00% # Request fanout histogram
system.tol2bus.snoop_fanout::2                      1      0.00%    100.00% # Request fanout histogram
system.tol2bus.snoop_fanout::overflows              0      0.00%    100.00% # Request fanout histogram
system.tol2bus.snoop_fanout::min_value              0                       # Request fanout histogram
system.tol2bus.snoop_fanout::max_value              2                       # Request fanout histogram
system.tol2bus.snoop_fanout::total            2943627                       # Request fanout histogram
system.tol2bus.power_state.pwrStateResidencyTicks::UNDEFINED 175149002000                       # Cumulative time (in ticks) in various power states
system.tol2bus.reqLayer0.occupancy         2974502000                       # Layer occupancy (ticks)
system.tol2bus.reqLayer0.utilization              1.7                       # Layer utilization (%)
system.tol2bus.respLayer0.occupancy           1029998                       # Layer occupancy (ticks)
system.tol2bus.respLayer0.utilization             0.0                       # Layer utilization (%)
system.tol2bus.respLayer1.occupancy        2231422999                       # Layer occupancy (ticks)
system.tol2bus.respLayer1.utilization             1.3                       # Layer utilization (%)
system.voltage_domain.voltage                       1                       # Voltage in Volts

---------- End Simulation Statistics   ----------
