
---------- Begin Simulation Statistics ----------
final_tick                               176446097000                       # Number of ticks from beginning of simulation (restored from checkpoints and never reset)
host_inst_rate                                 204196                       # Simulator instruction rate (inst/s)
host_mem_usage                                 711280                       # Number of bytes of host memory used
host_op_rate                                   204203                       # Simulator op (including micro ops) rate (op/s)
host_seconds                                   489.73                       # Real time elapsed on the host
host_tick_rate                              360295156                       # Simulator tick rate (ticks/s)
sim_freq                                 1000000000000                       # Frequency of simulated ticks
sim_insts                                   100000001                       # Number of instructions simulated
sim_ops                                     100003447                       # Number of ops (including micro ops) simulated
sim_seconds                                  0.176446                       # Number of seconds simulated
sim_ticks                                176446097000                       # Number of ticks simulated
system.cpu.committedInsts                   100000001                       # Number of instructions committed
system.cpu.committedOps                     100003447                       # Number of ops (including micro ops) committed
system.cpu.cpi                               3.528922                       # CPI: cycles per instruction
system.cpu.discardedOps                         21131                       # Number of ops (including micro ops) which were discarded before commit
system.cpu.idleCycles                       235433115                       # Total number of cycles that the object has spent stopped
system.cpu.ipc                               0.283373                       # IPC: instructions per cycle
system.cpu.numCycles                        352892194                       # number of cpu cycles simulated
system.cpu.numFetchSuspends                         0                       # Number of times Execute suspended instruction fetching
system.cpu.numWorkItemsCompleted                    0                       # number of work items this cpu completed
system.cpu.numWorkItemsStarted                      0                       # number of work items this cpu started
system.cpu.op_class_0::No_OpClass                   0      0.00%      0.00% # Class of committed instruction
system.cpu.op_class_0::IntAlu                49995247     49.99%     49.99% # Class of committed instruction
system.cpu.op_class_0::IntMult                     85      0.00%     49.99% # Class of committed instruction
system.cpu.op_class_0::IntDiv                       0      0.00%     49.99% # Class of committed instruction
system.cpu.op_class_0::FloatAdd                     0      0.00%     49.99% # Class of committed instruction
system.cpu.op_class_0::FloatCmp                     0      0.00%     49.99% # Class of committed instruction
system.cpu.op_class_0::FloatCvt                     0      0.00%     49.99% # Class of committed instruction
system.cpu.op_class_0::FloatMult                    0      0.00%     49.99% # Class of committed instruction
system.cpu.op_class_0::FloatMultAcc                 0      0.00%     49.99% # Class of committed instruction
system.cpu.op_class_0::FloatDiv                     0      0.00%     49.99% # Class of committed instruction
system.cpu.op_class_0::FloatMisc                    0      0.00%     49.99% # Class of committed instruction
system.cpu.op_class_0::FloatSqrt                    0      0.00%     49.99% # Class of committed instruction
system.cpu.op_class_0::SimdAdd                      0      0.00%     49.99% # Class of committed instruction
system.cpu.op_class_0::SimdAddAcc                   0      0.00%     49.99% # Class of committed instruction
system.cpu.op_class_0::SimdAlu                      0      0.00%     49.99% # Class of committed instruction
system.cpu.op_class_0::SimdCmp                      0      0.00%     49.99% # Class of committed instruction
system.cpu.op_class_0::SimdCvt                      0      0.00%     49.99% # Class of committed instruction
system.cpu.op_class_0::SimdMisc                     0      0.00%     49.99% # Class of committed instruction
system.cpu.op_class_0::SimdMult                     0      0.00%     49.99% # Class of committed instruction
system.cpu.op_class_0::SimdMultAcc                  0      0.00%     49.99% # Class of committed instruction
system.cpu.op_class_0::SimdShift                    0      0.00%     49.99% # Class of committed instruction
system.cpu.op_class_0::SimdShiftAcc                 0      0.00%     49.99% # Class of committed instruction
system.cpu.op_class_0::SimdDiv                      0      0.00%     49.99% # Class of committed instruction
system.cpu.op_class_0::SimdSqrt                     0      0.00%     49.99% # Class of committed instruction
system.cpu.op_class_0::SimdFloatAdd                 0      0.00%     49.99% # Class of committed instruction
system.cpu.op_class_0::SimdFloatAlu                 0      0.00%     49.99% # Class of committed instruction
system.cpu.op_class_0::SimdFloatCmp                 2      0.00%     49.99% # Class of committed instruction
system.cpu.op_class_0::SimdFloatCvt                 0      0.00%     49.99% # Class of committed instruction
system.cpu.op_class_0::SimdFloatDiv                 0      0.00%     49.99% # Class of committed instruction
system.cpu.op_class_0::SimdFloatMisc                5      0.00%     49.99% # Class of committed instruction
system.cpu.op_class_0::SimdFloatMult                0      0.00%     49.99% # Class of committed instruction
system.cpu.op_class_0::SimdFloatMultAcc             0      0.00%     49.99% # Class of committed instruction
system.cpu.op_class_0::SimdFloatSqrt                0      0.00%     49.99% # Class of committed instruction
system.cpu.op_class_0::SimdReduceAdd                0      0.00%     49.99% # Class of committed instruction
system.cpu.op_class_0::SimdReduceAlu                0      0.00%     49.99% # Class of committed instruction
system.cpu.op_class_0::SimdReduceCmp                0      0.00%     49.99% # Class of committed instruction
system.cpu.op_class_0::SimdFloatReduceAdd            0      0.00%     49.99% # Class of committed instruction
system.cpu.op_class_0::SimdFloatReduceCmp            0      0.00%     49.99% # Class of committed instruction
system.cpu.op_class_0::SimdAes                      0      0.00%     49.99% # Class of committed instruction
system.cpu.op_class_0::SimdAesMix                   0      0.00%     49.99% # Class of committed instruction
system.cpu.op_class_0::SimdSha1Hash                 0      0.00%     49.99% # Class of committed instruction
system.cpu.op_class_0::SimdSha1Hash2                0      0.00%     49.99% # Class of committed instruction
system.cpu.op_class_0::SimdSha256Hash               0      0.00%     49.99% # Class of committed instruction
system.cpu.op_class_0::SimdSha256Hash2              0      0.00%     49.99% # Class of committed instruction
system.cpu.op_class_0::SimdShaSigma2                0      0.00%     49.99% # Class of committed instruction
system.cpu.op_class_0::SimdShaSigma3                0      0.00%     49.99% # Class of committed instruction
system.cpu.op_class_0::SimdPredAlu                  0      0.00%     49.99% # Class of committed instruction
system.cpu.op_class_0::MemRead               36892277     36.89%     86.88% # Class of committed instruction
system.cpu.op_class_0::MemWrite              13115831     13.12%    100.00% # Class of committed instruction
system.cpu.op_class_0::FloatMemRead                 0      0.00%    100.00% # Class of committed instruction
system.cpu.op_class_0::FloatMemWrite                0      0.00%    100.00% # Class of committed instruction
system.cpu.op_class_0::IprAccess                    0      0.00%    100.00% # Class of committed instruction
system.cpu.op_class_0::InstPrefetch                 0      0.00%    100.00% # Class of committed instruction
system.cpu.op_class_0::total                100003447                       # Class of committed instruction
system.cpu.tickCycles                       117459079                       # Number of cycles that the object actually ticked
system.cpu.workload.numSyscalls                    19                       # Number of system calls
system.membus.snoop_filter.hit_multi_requests            0                       # Number of requests hitting in the snoop filter with multiple (>1) holders of the requested data.
system.membus.snoop_filter.hit_multi_snoops            0                       # Number of snoops hitting in the snoop filter with multiple (>1) holders of the requested data.
system.membus.snoop_filter.hit_single_requests      1479508                       # Number of requests hitting in the snoop filter with a single holder of the requested data.
system.membus.snoop_filter.hit_single_snoops            0                       # Number of snoops hitting in the snoop filter with a single holder of the requested data.
system.membus.snoop_filter.tot_requests       2967604                       # Total number of requests made to the snoop filter.
system.membus.snoop_filter.tot_snoops               0                       # Total number of snoops made to the snoop filter.
system.tol2bus.snoop_filter.hit_multi_requests        11655                       # Number of requests hitting in the snoop filter with multiple (>1) holders of the requested data.
system.tol2bus.snoop_filter.hit_multi_snoops            0                       # Number of snoops hitting in the snoop filter with multiple (>1) holders of the requested data.
system.tol2bus.snoop_filter.hit_single_requests      1542505                       # Number of requests hitting in the snoop filter with a single holder of the requested data.
system.tol2bus.snoop_filter.hit_single_snoops          396                       # Number of snoops hitting in the snoop filter with a single holder of the requested data.
system.tol2bus.snoop_filter.tot_requests      3085917                       # Total number of requests made to the snoop filter.
system.tol2bus.snoop_filter.tot_snoops            396                       # Total number of snoops made to the snoop filter.
system.clk_domain.clock                          1000                       # Clock period in ticks
system.cpu.branchPred.lookups                  606355                       # Number of BP lookups
system.cpu.branchPred.condPredicted            604345                       # Number of conditional branches predicted
system.cpu.branchPred.condIncorrect               818                       # Number of conditional branches incorrect
system.cpu.branchPred.BTBLookups               602246                       # Number of BTB lookups
system.cpu.branchPred.BTBHits                  601174                       # Number of BTB hits
system.cpu.branchPred.BTBHitPct             99.822000                       # BTB Hit Percentage
system.cpu.branchPred.RASUsed                     553                       # Number of times the RAS was used to get a target.
system.cpu.branchPred.RASIncorrect                  1                       # Number of incorrect RAS predictions.
system.cpu.branchPred.indirectLookups             358                       # Number of indirect predictor lookups.
system.cpu.branchPred.indirectHits                165                       # Number of indirect target hits.
system.cpu.branchPred.indirectMisses              193                       # Number of indirect misses.
system.cpu.branchPred.indirectMispredicted          106                       # Number of mispredicted indirect branches.
system.cpu.dcache.demand_hits::.cpu.data     45742142                       # number of demand (read+write) hits
system.cpu.dcache.demand_hits::total         45742142                       # number of demand (read+write) hits
system.cpu.dcache.overall_hits::.cpu.data     45742170                       # number of overall hits
system.cpu.dcache.overall_hits::total        45742170                       # number of overall hits
system.cpu.dcache.demand_misses::.cpu.data      3052965                       # number of demand (read+write) misses
system.cpu.dcache.demand_misses::total        3052965                       # number of demand (read+write) misses
system.cpu.dcache.overall_misses::.cpu.data      3052989                       # number of overall misses
system.cpu.dcache.overall_misses::total       3052989                       # number of overall misses
system.cpu.dcache.demand_miss_latency::.cpu.data 240106854000                       # number of demand (read+write) miss cycles
system.cpu.dcache.demand_miss_latency::total 240106854000                       # number of demand (read+write) miss cycles
system.cpu.dcache.overall_miss_latency::.cpu.data 240106854000                       # number of overall miss cycles
system.cpu.dcache.overall_miss_latency::total 240106854000                       # number of overall miss cycles
system.cpu.dcache.demand_accesses::.cpu.data     48795107                       # number of demand (read+write) accesses
system.cpu.dcache.demand_accesses::total     48795107                       # number of demand (read+write) accesses
system.cpu.dcache.overall_accesses::.cpu.data     48795159                       # number of overall (read+write) accesses
system.cpu.dcache.overall_accesses::total     48795159                       # number of overall (read+write) accesses
system.cpu.dcache.demand_miss_rate::.cpu.data     0.062567                       # miss rate for demand accesses
system.cpu.dcache.demand_miss_rate::total     0.062567                       # miss rate for demand accesses
system.cpu.dcache.overall_miss_rate::.cpu.data     0.062567                       # miss rate for overall accesses
system.cpu.dcache.overall_miss_rate::total     0.062567                       # miss rate for overall accesses
system.cpu.dcache.demand_avg_miss_latency::.cpu.data 78647.103390                       # average overall miss latency
system.cpu.dcache.demand_avg_miss_latency::total 78647.103390                       # average overall miss latency
system.cpu.dcache.overall_avg_miss_latency::.cpu.data 78646.485133                       # average overall miss latency
system.cpu.dcache.overall_avg_miss_latency::total 78646.485133                       # average overall miss latency
system.cpu.dcache.blocked_cycles::no_mshrs            0                       # number of cycles access was blocked
system.cpu.dcache.blocked_cycles::no_targets            0                       # number of cycles access was blocked
system.cpu.dcache.blocked::no_mshrs                 0                       # number of cycles access was blocked
system.cpu.dcache.blocked::no_targets               0                       # number of cycles access was blocked
system.cpu.dcache.avg_blocked_cycles::no_mshrs          nan                       # average number of cycles each access was blocked
system.cpu.dcache.avg_blocked_cycles::no_targets          nan                       # average number of cycles each access was blocked
system.cpu.dcache.writebacks::.writebacks      1530596                       # number of writebacks
system.cpu.dcache.writebacks::total           1530596                       # number of writebacks
system.cpu.dcache.demand_mshr_hits::.cpu.data      1510140                       # number of demand (read+write) MSHR hits
system.cpu.dcache.demand_mshr_hits::total      1510140                       # number of demand (read+write) MSHR hits
system.cpu.dcache.overall_mshr_hits::.cpu.data      1510140                       # number of overall MSHR hits
system.cpu.dcache.overall_mshr_hits::total      1510140                       # number of overall MSHR hits
system.cpu.dcache.demand_mshr_misses::.cpu.data      1542825                       # number of demand (read+write) MSHR misses
system.cpu.dcache.demand_mshr_misses::total      1542825                       # number of demand (read+write) MSHR misses
system.cpu.dcache.overall_mshr_misses::.cpu.data      1542843                       # number of overall MSHR misses
system.cpu.dcache.overall_mshr_misses::total      1542843                       # number of overall MSHR misses
system.cpu.dcache.demand_mshr_miss_latency::.cpu.data 122956748000                       # number of demand (read+write) MSHR miss cycles
system.cpu.dcache.demand_mshr_miss_latency::total 122956748000                       # number of demand (read+write) MSHR miss cycles
system.cpu.dcache.overall_mshr_miss_latency::.cpu.data 122958150500                       # number of overall MSHR miss cycles
system.cpu.dcache.overall_mshr_miss_latency::total 122958150500                       # number of overall MSHR miss cycles
system.cpu.dcache.demand_mshr_miss_rate::.cpu.data     0.031618                       # mshr miss rate for demand accesses
system.cpu.dcache.demand_mshr_miss_rate::total     0.031618                       # mshr miss rate for demand accesses
system.cpu.dcache.overall_mshr_miss_rate::.cpu.data     0.031619                       # mshr miss rate for overall accesses
system.cpu.dcache.overall_mshr_miss_rate::total     0.031619                       # mshr miss rate for overall accesses
system.cpu.dcache.demand_avg_mshr_miss_latency::.cpu.data 79695.848849                       # average overall mshr miss latency
system.cpu.dcache.demand_avg_mshr_miss_latency::total 79695.848849                       # average overall mshr miss latency
system.cpu.dcache.overall_avg_mshr_miss_latency::.cpu.data 79695.828091                       # average overall mshr miss latency
system.cpu.dcache.overall_avg_mshr_miss_latency::total 79695.828091                       # average overall mshr miss latency
system.cpu.dcache.replacements                1542332                       # number of replacements
system.cpu.dcache.ReadReq_hits::.cpu.data     35671107                       # number of ReadReq hits
system.cpu.dcache.ReadReq_hits::total        35671107                       # number of ReadReq hits
system.cpu.dcache.ReadReq_misses::.cpu.data        31513                       # number of ReadReq misses
system.cpu.dcache.ReadReq_misses::total         31513                       # number of ReadReq misses
system.cpu.dcache.ReadReq_miss_latency::.cpu.data    766964000                       # number of ReadReq miss cycles
system.cpu.dcache.ReadReq_miss_latency::total    766964000                       # number of ReadReq miss cycles
system.cpu.dcache.ReadReq_accesses::.cpu.data     35702620                       # number of ReadReq accesses(hits+misses)
system.cpu.dcache.ReadReq_accesses::total     35702620                       # number of ReadReq accesses(hits+misses)
system.cpu.dcache.ReadReq_miss_rate::.cpu.data     0.000883                       # miss rate for ReadReq accesses
system.cpu.dcache.ReadReq_miss_rate::total     0.000883                       # miss rate for ReadReq accesses
system.cpu.dcache.ReadReq_avg_miss_latency::.cpu.data 24338.019230                       # average ReadReq miss latency
system.cpu.dcache.ReadReq_avg_miss_latency::total 24338.019230                       # average ReadReq miss latency
system.cpu.dcache.ReadReq_mshr_hits::.cpu.data            6                       # number of ReadReq MSHR hits
system.cpu.dcache.ReadReq_mshr_hits::total            6                       # number of ReadReq MSHR hits
system.cpu.dcache.ReadReq_mshr_misses::.cpu.data        31507                       # number of ReadReq MSHR misses
system.cpu.dcache.ReadReq_mshr_misses::total        31507                       # number of ReadReq MSHR misses
system.cpu.dcache.ReadReq_mshr_miss_latency::.cpu.data    734999500                       # number of ReadReq MSHR miss cycles
system.cpu.dcache.ReadReq_mshr_miss_latency::total    734999500                       # number of ReadReq MSHR miss cycles
system.cpu.dcache.ReadReq_mshr_miss_rate::.cpu.data     0.000882                       # mshr miss rate for ReadReq accesses
system.cpu.dcache.ReadReq_mshr_miss_rate::total     0.000882                       # mshr miss rate for ReadReq accesses
system.cpu.dcache.ReadReq_avg_mshr_miss_latency::.cpu.data 23328.133431                       # average ReadReq mshr miss latency
system.cpu.dcache.ReadReq_avg_mshr_miss_latency::total 23328.133431                       # average ReadReq mshr miss latency
system.cpu.dcache.WriteReq_hits::.cpu.data     10071035                       # number of WriteReq hits
system.cpu.dcache.WriteReq_hits::total       10071035                       # number of WriteReq hits
system.cpu.dcache.WriteReq_misses::.cpu.data      3021452                       # number of WriteReq misses
system.cpu.dcache.WriteReq_misses::total      3021452                       # number of WriteReq misses
system.cpu.dcache.WriteReq_miss_latency::.cpu.data 239339890000                       # number of WriteReq miss cycles
system.cpu.dcache.WriteReq_miss_latency::total 239339890000                       # number of WriteReq miss cycles
system.cpu.dcache.WriteReq_accesses::.cpu.data     13092487                       # number of WriteReq accesses(hits+misses)
system.cpu.dcache.WriteReq_accesses::total     13092487                       # number of WriteReq accesses(hits+misses)
system.cpu.dcache.WriteReq_miss_rate::.cpu.data     0.230778                       # miss rate for WriteReq accesses
system.cpu.dcache.WriteReq_miss_rate::total     0.230778                       # miss rate for WriteReq accesses
system.cpu.dcache.WriteReq_avg_miss_latency::.cpu.data 79213.533758                       # average WriteReq miss latency
system.cpu.dcache.WriteReq_avg_miss_latency::total 79213.533758                       # average WriteReq miss latency
system.cpu.dcache.WriteReq_mshr_hits::.cpu.data      1510134                       # number of WriteReq MSHR hits
system.cpu.dcache.WriteReq_mshr_hits::total      1510134                       # number of WriteReq MSHR hits
system.cpu.dcache.WriteReq_mshr_misses::.cpu.data      1511318                       # number of WriteReq MSHR misses
system.cpu.dcache.WriteReq_mshr_misses::total      1511318                       # number of WriteReq MSHR misses
system.cpu.dcache.WriteReq_mshr_miss_latency::.cpu.data 122221748500                       # number of WriteReq MSHR miss cycles
system.cpu.dcache.WriteReq_mshr_miss_latency::total 122221748500                       # number of WriteReq MSHR miss cycles
system.cpu.dcache.WriteReq_mshr_miss_rate::.cpu.data     0.115434                       # mshr miss rate for WriteReq accesses
system.cpu.dcache.WriteReq_mshr_miss_rate::total     0.115434                       # mshr miss rate for WriteReq accesses
system.cpu.dcache.WriteReq_avg_mshr_miss_latency::.cpu.data 80870.967262                       # average WriteReq mshr miss latency
system.cpu.dcache.WriteReq_avg_mshr_miss_latency::total 80870.967262                       # average WriteReq mshr miss latency
system.cpu.dcache.SoftPFReq_hits::.cpu.data           28                       # number of SoftPFReq hits
system.cpu.dcache.SoftPFReq_hits::total            28                       # number of SoftPFReq hits
system.cpu.dcache.SoftPFReq_misses::.cpu.data           24                       # number of SoftPFReq misses
system.cpu.dcache.SoftPFReq_misses::total           24                       # number of SoftPFReq misses
system.cpu.dcache.SoftPFReq_accesses::.cpu.data           52                       # number of SoftPFReq accesses(hits+misses)
system.cpu.dcache.SoftPFReq_accesses::total           52                       # number of SoftPFReq accesses(hits+misses)
system.cpu.dcache.SoftPFReq_miss_rate::.cpu.data     0.461538                       # miss rate for SoftPFReq accesses
system.cpu.dcache.SoftPFReq_miss_rate::total     0.461538                       # miss rate for SoftPFReq accesses
system.cpu.dcache.SoftPFReq_mshr_misses::.cpu.data           18                       # number of SoftPFReq MSHR misses
system.cpu.dcache.SoftPFReq_mshr_misses::total           18                       # number of SoftPFReq MSHR misses
system.cpu.dcache.SoftPFReq_mshr_miss_latency::.cpu.data      1402500                       # number of SoftPFReq MSHR miss cycles
system.cpu.dcache.SoftPFReq_mshr_miss_latency::total      1402500                       # number of SoftPFReq MSHR miss cycles
system.cpu.dcache.SoftPFReq_mshr_miss_rate::.cpu.data     0.346154                       # mshr miss rate for SoftPFReq accesses
system.cpu.dcache.SoftPFReq_mshr_miss_rate::total     0.346154                       # mshr miss rate for SoftPFReq accesses
system.cpu.dcache.SoftPFReq_avg_mshr_miss_latency::.cpu.data 77916.666667                       # average SoftPFReq mshr miss latency
system.cpu.dcache.SoftPFReq_avg_mshr_miss_latency::total 77916.666667                       # average SoftPFReq mshr miss latency
system.cpu.dcache.LoadLockedReq_hits::.cpu.data           13                       # number of LoadLockedReq hits
system.cpu.dcache.LoadLockedReq_hits::total           13                       # number of LoadLockedReq hits
system.cpu.dcache.LoadLockedReq_misses::.cpu.data            1                       # number of LoadLockedReq misses
system.cpu.dcache.LoadLockedReq_misses::total            1                       # number of LoadLockedReq misses
system.cpu.dcache.LoadLockedReq_miss_latency::.cpu.data        86500                       # number of LoadLockedReq miss cycles
system.cpu.dcache.LoadLockedReq_miss_latency::total        86500                       # number of LoadLockedReq miss cycles
system.cpu.dcache.LoadLockedReq_accesses::.cpu.data           14                       # number of LoadLockedReq accesses(hits+misses)
system.cpu.dcache.LoadLockedReq_accesses::total           14                       # number of LoadLockedReq accesses(hits+misses)
system.cpu.dcache.LoadLockedReq_miss_rate::.cpu.data     0.071429                       # miss rate for LoadLockedReq accesses
system.cpu.dcache.LoadLockedReq_miss_rate::total     0.071429                       # miss rate for LoadLockedReq accesses
system.cpu.dcache.LoadLockedReq_avg_miss_latency::.cpu.data        86500                       # average LoadLockedReq miss latency
system.cpu.dcache.LoadLockedReq_avg_miss_latency::total        86500                       # average LoadLockedReq miss latency
system.cpu.dcache.LoadLockedReq_mshr_misses::.cpu.data            1                       # number of LoadLockedReq MSHR misses
system.cpu.dcache.LoadLockedReq_mshr_misses::total            1                       # number of LoadLockedReq MSHR misses
system.cpu.dcache.LoadLockedReq_mshr_miss_latency::.cpu.data        85500                       # number of LoadLockedReq MSHR miss cycles
system.cpu.dcache.LoadLockedReq_mshr_miss_latency::total        85500                       # number of LoadLockedReq MSHR miss cycles
system.cpu.dcache.LoadLockedReq_mshr_miss_rate::.cpu.data     0.071429                       # mshr miss rate for LoadLockedReq accesses
system.cpu.dcache.LoadLockedReq_mshr_miss_rate::total     0.071429                       # mshr miss rate for LoadLockedReq accesses
system.cpu.dcache.LoadLockedReq_avg_mshr_miss_latency::.cpu.data        85500                       # average LoadLockedReq mshr miss latency
system.cpu.dcache.LoadLockedReq_avg_mshr_miss_latency::total        85500                       # average LoadLockedReq mshr miss latency
system.cpu.dcache.StoreCondReq_hits::.cpu.data           14                       # number of StoreCondReq hits
system.cpu.dcache.StoreCondReq_hits::total           14                       # number of StoreCondReq hits
system.cpu.dcache.StoreCondReq_accesses::.cpu.data           14                       # number of StoreCondReq accesses(hits+misses)
system.cpu.dcache.StoreCondReq_accesses::total           14                       # number of StoreCondReq accesses(hits+misses)
system.cpu.dcache.power_state.pwrStateResidencyTicks::UNDEFINED 176446097000                       # Cumulative time (in ticks) in various power states
system.cpu.dcache.tags.tagsinuse           511.800332                       # Cycle average of tags in use
system.cpu.dcache.tags.total_refs            47285041                       # Total number of references to valid blocks.
system.cpu.dcache.tags.sampled_refs           1542844                       # Sample count of references to valid blocks.
system.cpu.dcache.tags.avg_refs             30.647973                       # Average number of references to valid blocks.
system.cpu.dcache.tags.warmup_cycle            195500                       # Cycle when the warmup percentage was hit.
system.cpu.dcache.tags.occ_blocks::.cpu.data   511.800332                       # Average occupied blocks per requestor
system.cpu.dcache.tags.occ_percent::.cpu.data     0.999610                       # Average percentage of cache occupancy
system.cpu.dcache.tags.occ_percent::total     0.999610                       # Average percentage of cache occupancy
system.cpu.dcache.tags.occ_task_id_blocks::1024          512                       # Occupied blocks per task id
system.cpu.dcache.tags.age_task_id_blocks_1024::0           83                       # Occupied blocks per task id
system.cpu.dcache.tags.age_task_id_blocks_1024::1          429                       # Occupied blocks per task id
system.cpu.dcache.tags.occ_task_id_percent::1024            1                       # Percentage of cache occupancy per task id
system.cpu.dcache.tags.tag_accesses          50338031                       # Number of tag accesses
system.cpu.dcache.tags.data_accesses         50338031                       # Number of data accesses
system.cpu.dcache.tags.power_state.pwrStateResidencyTicks::UNDEFINED 176446097000                       # Cumulative time (in ticks) in various power states
system.cpu.dtb.instHits                             0                       # ITB inst hits
system.cpu.dtb.instMisses                           0                       # ITB inst misses
system.cpu.dtb.readHits                             0                       # DTB read hits
system.cpu.dtb.readMisses                           0                       # DTB read misses
system.cpu.dtb.writeHits                            0                       # DTB write hits
system.cpu.dtb.writeMisses                          0                       # DTB write misses
system.cpu.dtb.inserts                              0                       # Number of times an entry is inserted into the TLB
system.cpu.dtb.flushTlb                             0                       # Number of times complete TLB was flushed
system.cpu.dtb.flushTlbMva                          0                       # Number of times TLB was flushed by MVA
system.cpu.dtb.flushTlbMvaAsid                      0                       # Number of times TLB was flushed by MVA & ASID
system.cpu.dtb.flushTlbAsid                         0                       # Number of times TLB was flushed by ASID
system.cpu.dtb.flushedEntries                       0                       # Number of entries that have been flushed from TLB
system.cpu.dtb.alignFaults                          0                       # Number of TLB faults due to alignment restrictions
system.cpu.dtb.prefetchFaults                       0                       # Number of TLB faults due to prefetch
system.cpu.dtb.domainFaults                         0                       # Number of TLB faults due to domain restrictions
system.cpu.dtb.permsFaults                          0                       # Number of TLB faults due to permissions restrictions
system.cpu.dtb.readAccesses                         0                       # DTB read accesses
system.cpu.dtb.writeAccesses                        0                       # DTB write accesses
system.cpu.dtb.instAccesses                         0                       # ITB inst accesses
system.cpu.dtb.hits                                 0                       # Total TLB (inst and data) hits
system.cpu.dtb.misses                               0                       # Total TLB (inst and data) misses
system.cpu.dtb.accesses                             0                       # Total TLB (inst and data) accesses
system.cpu.dtb.stage2_mmu.stage2_tlb.instHits            0                       # ITB inst hits
system.cpu.dtb.stage2_mmu.stage2_tlb.instMisses            0                       # ITB inst misses
system.cpu.dtb.stage2_mmu.stage2_tlb.readHits            0                       # DTB read hits
system.cpu.dtb.stage2_mmu.stage2_tlb.readMisses            0                       # DTB read misses
system.cpu.dtb.stage2_mmu.stage2_tlb.writeHits            0                       # DTB write hits
system.cpu.dtb.stage2_mmu.stage2_tlb.writeMisses            0                       # DTB write misses
system.cpu.dtb.stage2_mmu.stage2_tlb.inserts            0                       # Number of times an entry is inserted into the TLB
system.cpu.dtb.stage2_mmu.stage2_tlb.flushTlb            0                       # Number of times complete TLB was flushed
system.cpu.dtb.stage2_mmu.stage2_tlb.flushTlbMva            0                       # Number of times TLB was flushed by MVA
system.cpu.dtb.stage2_mmu.stage2_tlb.flushTlbMvaAsid            0                       # Number of times TLB was flushed by MVA & ASID
system.cpu.dtb.stage2_mmu.stage2_tlb.flushTlbAsid            0                       # Number of times TLB was flushed by ASID
system.cpu.dtb.stage2_mmu.stage2_tlb.flushedEntries            0                       # Number of entries that have been flushed from TLB
system.cpu.dtb.stage2_mmu.stage2_tlb.alignFaults            0                       # Number of TLB faults due to alignment restrictions
system.cpu.dtb.stage2_mmu.stage2_tlb.prefetchFaults            0                       # Number of TLB faults due to prefetch
system.cpu.dtb.stage2_mmu.stage2_tlb.domainFaults            0                       # Number of TLB faults due to domain restrictions
system.cpu.dtb.stage2_mmu.stage2_tlb.permsFaults            0                       # Number of TLB faults due to permissions restrictions
system.cpu.dtb.stage2_mmu.stage2_tlb.readAccesses            0                       # DTB read accesses
system.cpu.dtb.stage2_mmu.stage2_tlb.writeAccesses            0                       # DTB write accesses
system.cpu.dtb.stage2_mmu.stage2_tlb.instAccesses            0                       # ITB inst accesses
system.cpu.dtb.stage2_mmu.stage2_tlb.hits            0                       # Total TLB (inst and data) hits
system.cpu.dtb.stage2_mmu.stage2_tlb.misses            0                       # Total TLB (inst and data) misses
system.cpu.dtb.stage2_mmu.stage2_tlb.accesses            0                       # Total TLB (inst and data) accesses
system.cpu.dtb.stage2_mmu.stage2_tlb.walker.walks            0                       # Table walker walks requested
system.cpu.dtb.stage2_mmu.stage2_tlb.walker.requestOrigin_Requested::Data            0                       # Table walker requests started/completed, data/inst
system.cpu.dtb.stage2_mmu.stage2_tlb.walker.requestOrigin_Requested::Inst            0                       # Table walker requests started/completed, data/inst
system.cpu.dtb.stage2_mmu.stage2_tlb.walker.requestOrigin_Requested::total            0                       # Table walker requests started/completed, data/inst
system.cpu.dtb.stage2_mmu.stage2_tlb.walker.requestOrigin_Completed::Data            0                       # Table walker requests started/completed, data/inst
system.cpu.dtb.stage2_mmu.stage2_tlb.walker.requestOrigin_Completed::Inst            0                       # Table walker requests started/completed, data/inst
system.cpu.dtb.stage2_mmu.stage2_tlb.walker.requestOrigin_Completed::total            0                       # Table walker requests started/completed, data/inst
system.cpu.dtb.stage2_mmu.stage2_tlb.walker.requestOrigin::total            0                       # Table walker requests started/completed, data/inst
system.cpu.dtb.stage2_mmu.stage2_tlb.walker.power_state.pwrStateResidencyTicks::UNDEFINED 176446097000                       # Cumulative time (in ticks) in various power states
system.cpu.dtb.walker.walks                         0                       # Table walker walks requested
system.cpu.dtb.walker.requestOrigin_Requested::Data            0                       # Table walker requests started/completed, data/inst
system.cpu.dtb.walker.requestOrigin_Requested::Inst            0                       # Table walker requests started/completed, data/inst
system.cpu.dtb.walker.requestOrigin_Requested::total            0                       # Table walker requests started/completed, data/inst
system.cpu.dtb.walker.requestOrigin_Completed::Data            0                       # Table walker requests started/completed, data/inst
system.cpu.dtb.walker.requestOrigin_Completed::Inst            0                       # Table walker requests started/completed, data/inst
system.cpu.dtb.walker.requestOrigin_Completed::total            0                       # Table walker requests started/completed, data/inst
system.cpu.dtb.walker.requestOrigin::total            0                       # Table walker requests started/completed, data/inst
system.cpu.dtb.walker.power_state.pwrStateResidencyTicks::UNDEFINED 176446097000                       # Cumulative time (in ticks) in various power states
system.cpu.fetch2.intInstructions            49669672                       # Number of integer instructions successfully decoded
system.cpu.fetch2.fpInstructions                    0                       # Number of floating point instructions successfully decoded
system.cpu.fetch2.vecInstructions                   0                       # Number of SIMD instructions successfully decoded
system.cpu.fetch2.loadInstructions           37092368                       # Number of memory load instructions successfully decoded
system.cpu.fetch2.storeInstructions          13161017                       # Number of memory store instructions successfully decoded
system.cpu.fetch2.amoInstructions                   0                       # Number of memory atomic instructions successfully decoded
system.cpu.icache.demand_hits::.cpu.inst      6045523                       # number of demand (read+write) hits
system.cpu.icache.demand_hits::total          6045523                       # number of demand (read+write) hits
system.cpu.icache.overall_hits::.cpu.inst      6045523                       # number of overall hits
system.cpu.icache.overall_hits::total         6045523                       # number of overall hits
system.cpu.icache.demand_misses::.cpu.inst          569                       # number of demand (read+write) misses
system.cpu.icache.demand_misses::total            569                       # number of demand (read+write) misses
system.cpu.icache.overall_misses::.cpu.inst          569                       # number of overall misses
system.cpu.icache.overall_misses::total           569                       # number of overall misses
system.cpu.icache.demand_miss_latency::.cpu.inst     39380500                       # number of demand (read+write) miss cycles
system.cpu.icache.demand_miss_latency::total     39380500                       # number of demand (read+write) miss cycles
system.cpu.icache.overall_miss_latency::.cpu.inst     39380500                       # number of overall miss cycles
system.cpu.icache.overall_miss_latency::total     39380500                       # number of overall miss cycles
system.cpu.icache.demand_accesses::.cpu.inst      6046092                       # number of demand (read+write) accesses
system.cpu.icache.demand_accesses::total      6046092                       # number of demand (read+write) accesses
system.cpu.icache.overall_accesses::.cpu.inst      6046092                       # number of overall (read+write) accesses
system.cpu.icache.overall_accesses::total      6046092                       # number of overall (read+write) accesses
system.cpu.icache.demand_miss_rate::.cpu.inst     0.000094                       # miss rate for demand accesses
system.cpu.icache.demand_miss_rate::total     0.000094                       # miss rate for demand accesses
system.cpu.icache.overall_miss_rate::.cpu.inst     0.000094                       # miss rate for overall accesses
system.cpu.icache.overall_miss_rate::total     0.000094                       # miss rate for overall accesses
system.cpu.icache.demand_avg_miss_latency::.cpu.inst 69210.017575                       # average overall miss latency
system.cpu.icache.demand_avg_miss_latency::total 69210.017575                       # average overall miss latency
system.cpu.icache.overall_avg_miss_latency::.cpu.inst 69210.017575                       # average overall miss latency
system.cpu.icache.overall_avg_miss_latency::total 69210.017575                       # average overall miss latency
system.cpu.icache.blocked_cycles::no_mshrs            0                       # number of cycles access was blocked
system.cpu.icache.blocked_cycles::no_targets            0                       # number of cycles access was blocked
system.cpu.icache.blocked::no_mshrs                 0                       # number of cycles access was blocked
system.cpu.icache.blocked::no_targets               0                       # number of cycles access was blocked
system.cpu.icache.avg_blocked_cycles::no_mshrs          nan                       # average number of cycles each access was blocked
system.cpu.icache.avg_blocked_cycles::no_targets          nan                       # average number of cycles each access was blocked
system.cpu.icache.writebacks::.writebacks          172                       # number of writebacks
system.cpu.icache.writebacks::total               172                       # number of writebacks
system.cpu.icache.demand_mshr_misses::.cpu.inst          569                       # number of demand (read+write) MSHR misses
system.cpu.icache.demand_mshr_misses::total          569                       # number of demand (read+write) MSHR misses
system.cpu.icache.overall_mshr_misses::.cpu.inst          569                       # number of overall MSHR misses
system.cpu.icache.overall_mshr_misses::total          569                       # number of overall MSHR misses
system.cpu.icache.demand_mshr_miss_latency::.cpu.inst     38811500                       # number of demand (read+write) MSHR miss cycles
system.cpu.icache.demand_mshr_miss_latency::total     38811500                       # number of demand (read+write) MSHR miss cycles
system.cpu.icache.overall_mshr_miss_latency::.cpu.inst     38811500                       # number of overall MSHR miss cycles
system.cpu.icache.overall_mshr_miss_latency::total     38811500                       # number of overall MSHR miss cycles
system.cpu.icache.demand_mshr_miss_rate::.cpu.inst     0.000094                       # mshr miss rate for demand accesses
system.cpu.icache.demand_mshr_miss_rate::total     0.000094                       # mshr miss rate for demand accesses
system.cpu.icache.overall_mshr_miss_rate::.cpu.inst     0.000094                       # mshr miss rate for overall accesses
system.cpu.icache.overall_mshr_miss_rate::total     0.000094                       # mshr miss rate for overall accesses
system.cpu.icache.demand_avg_mshr_miss_latency::.cpu.inst 68210.017575                       # average overall mshr miss latency
system.cpu.icache.demand_avg_mshr_miss_latency::total 68210.017575                       # average overall mshr miss latency
system.cpu.icache.overall_avg_mshr_miss_latency::.cpu.inst 68210.017575                       # average overall mshr miss latency
system.cpu.icache.overall_avg_mshr_miss_latency::total 68210.017575                       # average overall mshr miss latency
system.cpu.icache.replacements                    172                       # number of replacements
system.cpu.icache.ReadReq_hits::.cpu.inst      6045523                       # number of ReadReq hits
system.cpu.icache.ReadReq_hits::total         6045523                       # number of ReadReq hits
system.cpu.icache.ReadReq_misses::.cpu.inst          569                       # number of ReadReq misses
system.cpu.icache.ReadReq_misses::total           569                       # number of ReadReq misses
system.cpu.icache.ReadReq_miss_latency::.cpu.inst     39380500                       # number of ReadReq miss cycles
system.cpu.icache.ReadReq_miss_latency::total     39380500                       # number of ReadReq miss cycles
system.cpu.icache.ReadReq_accesses::.cpu.inst      6046092                       # number of ReadReq accesses(hits+misses)
system.cpu.icache.ReadReq_accesses::total      6046092                       # number of ReadReq accesses(hits+misses)
system.cpu.icache.ReadReq_miss_rate::.cpu.inst     0.000094                       # miss rate for ReadReq accesses
system.cpu.icache.ReadReq_miss_rate::total     0.000094                       # miss rate for ReadReq accesses
system.cpu.icache.ReadReq_avg_miss_latency::.cpu.inst 69210.017575                       # average ReadReq miss latency
system.cpu.icache.ReadReq_avg_miss_latency::total 69210.017575                       # average ReadReq miss latency
system.cpu.icache.ReadReq_mshr_misses::.cpu.inst          569                       # number of ReadReq MSHR misses
system.cpu.icache.ReadReq_mshr_misses::total          569                       # number of ReadReq MSHR misses
system.cpu.icache.ReadReq_mshr_miss_latency::.cpu.inst     38811500                       # number of ReadReq MSHR miss cycles
system.cpu.icache.ReadReq_mshr_miss_latency::total     38811500                       # number of ReadReq MSHR miss cycles
system.cpu.icache.ReadReq_mshr_miss_rate::.cpu.inst     0.000094                       # mshr miss rate for ReadReq accesses
system.cpu.icache.ReadReq_mshr_miss_rate::total     0.000094                       # mshr miss rate for ReadReq accesses
system.cpu.icache.ReadReq_avg_mshr_miss_latency::.cpu.inst 68210.017575                       # average ReadReq mshr miss latency
system.cpu.icache.ReadReq_avg_mshr_miss_latency::total 68210.017575                       # average ReadReq mshr miss latency
system.cpu.icache.power_state.pwrStateResidencyTicks::UNDEFINED 176446097000                       # Cumulative time (in ticks) in various power states
system.cpu.icache.tags.tagsinuse           396.943112                       # Cycle average of tags in use
system.cpu.icache.tags.total_refs             6046092                       # Total number of references to valid blocks.
system.cpu.icache.tags.sampled_refs               569                       # Sample count of references to valid blocks.
system.cpu.icache.tags.avg_refs          10625.820738                       # Average number of references to valid blocks.
system.cpu.icache.tags.warmup_cycle             87500                       # Cycle when the warmup percentage was hit.
system.cpu.icache.tags.occ_blocks::.cpu.inst   396.943112                       # Average occupied blocks per requestor
system.cpu.icache.tags.occ_percent::.cpu.inst     0.387640                       # Average percentage of cache occupancy
system.cpu.icache.tags.occ_percent::total     0.387640                       # Average percentage of cache occupancy
system.cpu.icache.tags.occ_task_id_blocks::1024          397                       # Occupied blocks per task id
system.cpu.icache.tags.age_task_id_blocks_1024::4          397                       # Occupied blocks per task id
system.cpu.icache.tags.occ_task_id_percent::1024     0.387695                       # Percentage of cache occupancy per task id
system.cpu.icache.tags.tag_accesses           6046661                       # Number of tag accesses
system.cpu.icache.tags.data_accesses          6046661                       # Number of data accesses
system.cpu.icache.tags.power_state.pwrStateResidencyTicks::UNDEFINED 176446097000                       # Cumulative time (in ticks) in various power states
system.cpu.itb.instHits                             0                       # ITB inst hits
system.cpu.itb.instMisses                           0                       # ITB inst misses
system.cpu.itb.readHits                             0                       # DTB read hits
system.cpu.itb.readMisses                           0                       # DTB read misses
system.cpu.itb.writeHits                            0                       # DTB write hits
system.cpu.itb.writeMisses                          0                       # DTB write misses
system.cpu.itb.inserts                              0                       # Number of times an entry is inserted into the TLB
system.cpu.itb.flushTlb                             0                       # Number of times complete TLB was flushed
system.cpu.itb.flushTlbMva                          0                       # Number of times TLB was flushed by MVA
system.cpu.itb.flushTlbMvaAsid                      0                       # Number of times TLB was flushed by MVA & ASID
system.cpu.itb.flushTlbAsid                         0                       # Number of times TLB was flushed by ASID
system.cpu.itb.flushedEntries                       0                       # Number of entries that have been flushed from TLB
system.cpu.itb.alignFaults                          0                       # Number of TLB faults due to alignment restrictions
system.cpu.itb.prefetchFaults                       0                       # Number of TLB faults due to prefetch
system.cpu.itb.domainFaults                         0                       # Number of TLB faults due to domain restrictions
system.cpu.itb.permsFaults                          0                       # Number of TLB faults due to permissions restrictions
system.cpu.itb.readAccesses                         0                       # DTB read accesses
system.cpu.itb.writeAccesses                        0                       # DTB write accesses
system.cpu.itb.instAccesses                         0                       # ITB inst accesses
system.cpu.itb.hits                                 0                       # Total TLB (inst and data) hits
system.cpu.itb.misses                               0                       # Total TLB (inst and data) misses
system.cpu.itb.accesses                             0                       # Total TLB (inst and data) accesses
system.cpu.itb.stage2_mmu.stage2_tlb.instHits            0                       # ITB inst hits
system.cpu.itb.stage2_mmu.stage2_tlb.instMisses            0                       # ITB inst misses
system.cpu.itb.stage2_mmu.stage2_tlb.readHits            0                       # DTB read hits
system.cpu.itb.stage2_mmu.stage2_tlb.readMisses            0                       # DTB read misses
system.cpu.itb.stage2_mmu.stage2_tlb.writeHits            0                       # DTB write hits
system.cpu.itb.stage2_mmu.stage2_tlb.writeMisses            0                       # DTB write misses
system.cpu.itb.stage2_mmu.stage2_tlb.inserts            0                       # Number of times an entry is inserted into the TLB
system.cpu.itb.stage2_mmu.stage2_tlb.flushTlb            0                       # Number of times complete TLB was flushed
system.cpu.itb.stage2_mmu.stage2_tlb.flushTlbMva            0                       # Number of times TLB was flushed by MVA
system.cpu.itb.stage2_mmu.stage2_tlb.flushTlbMvaAsid            0                       # Number of times TLB was flushed by MVA & ASID
system.cpu.itb.stage2_mmu.stage2_tlb.flushTlbAsid            0                       # Number of times TLB was flushed by ASID
system.cpu.itb.stage2_mmu.stage2_tlb.flushedEntries            0                       # Number of entries that have been flushed from TLB
system.cpu.itb.stage2_mmu.stage2_tlb.alignFaults            0                       # Number of TLB faults due to alignment restrictions
system.cpu.itb.stage2_mmu.stage2_tlb.prefetchFaults            0                       # Number of TLB faults due to prefetch
system.cpu.itb.stage2_mmu.stage2_tlb.domainFaults            0                       # Number of TLB faults due to domain restrictions
system.cpu.itb.stage2_mmu.stage2_tlb.permsFaults            0                       # Number of TLB faults due to permissions restrictions
system.cpu.itb.stage2_mmu.stage2_tlb.readAccesses            0                       # DTB read accesses
system.cpu.itb.stage2_mmu.stage2_tlb.writeAccesses            0                       # DTB write accesses
system.cpu.itb.stage2_mmu.stage2_tlb.instAccesses            0                       # ITB inst accesses
system.cpu.itb.stage2_mmu.stage2_tlb.hits            0                       # Total TLB (inst and data) hits
system.cpu.itb.stage2_mmu.stage2_tlb.misses            0                       # Total TLB (inst and data) misses
system.cpu.itb.stage2_mmu.stage2_tlb.accesses            0                       # Total TLB (inst and data) accesses
system.cpu.itb.stage2_mmu.stage2_tlb.walker.walks            0                       # Table walker walks requested
system.cpu.itb.stage2_mmu.stage2_tlb.walker.requestOrigin_Requested::Data            0                       # Table walker requests started/completed, data/inst
system.cpu.itb.stage2_mmu.stage2_tlb.walker.requestOrigin_Requested::Inst            0                       # Table walker requests started/completed, data/inst
system.cpu.itb.stage2_mmu.stage2_tlb.walker.requestOrigin_Requested::total            0                       # Table walker requests started/completed, data/inst
system.cpu.itb.stage2_mmu.stage2_tlb.walker.requestOrigin_Completed::Data            0                       # Table walker requests started/completed, data/inst
system.cpu.itb.stage2_mmu.stage2_tlb.walker.requestOrigin_Completed::Inst            0                       # Table walker requests started/completed, data/inst
system.cpu.itb.stage2_mmu.stage2_tlb.walker.requestOrigin_Completed::total            0                       # Table walker requests started/completed, data/inst
system.cpu.itb.stage2_mmu.stage2_tlb.walker.requestOrigin::total            0                       # Table walker requests started/completed, data/inst
system.cpu.itb.stage2_mmu.stage2_tlb.walker.power_state.pwrStateResidencyTicks::UNDEFINED 176446097000                       # Cumulative time (in ticks) in various power states
system.cpu.itb.walker.walks                         0                       # Table walker walks requested
system.cpu.itb.walker.requestOrigin_Requested::Data            0                       # Table walker requests started/completed, data/inst
system.cpu.itb.walker.requestOrigin_Requested::Inst            0                       # Table walker requests started/completed, data/inst
system.cpu.itb.walker.requestOrigin_Requested::total            0                       # Table walker requests started/completed, data/inst
system.cpu.itb.walker.requestOrigin_Completed::Data            0                       # Table walker requests started/completed, data/inst
system.cpu.itb.walker.requestOrigin_Completed::Inst            0                       # Table walker requests started/completed, data/inst
system.cpu.itb.walker.requestOrigin_Completed::total            0                       # Table walker requests started/completed, data/inst
system.cpu.itb.walker.requestOrigin::total            0                       # Table walker requests started/completed, data/inst
system.cpu.itb.walker.power_state.pwrStateResidencyTicks::UNDEFINED 176446097000                       # Cumulative time (in ticks) in various power states
system.cpu.power_state.pwrStateResidencyTicks::ON 176446097000                       # Cumulative time (in ticks) in various power states
system.cpu.thread0.numInsts                 100000001                       # Number of Instructions committed
system.cpu.thread0.numOps                   100003447                       # Number of Ops committed
system.cpu.thread0.numMemRefs                       0                       # Number of Memory References
system.cpu_clk_domain.clock                       500                       # Clock period in ticks
system.cpu_voltage_domain.voltage                   1                       # Voltage in Volts
system.l2.demand_hits::.cpu.inst                   72                       # number of demand (read+write) hits
system.l2.demand_hits::.cpu.data                55242                       # number of demand (read+write) hits
system.l2.demand_hits::total                    55314                       # number of demand (read+write) hits
system.l2.overall_hits::.cpu.inst                  72                       # number of overall hits
system.l2.overall_hits::.cpu.data               55242                       # number of overall hits
system.l2.overall_hits::total                   55314                       # number of overall hits
system.l2.demand_misses::.cpu.inst                497                       # number of demand (read+write) misses
system.l2.demand_misses::.cpu.data            1487602                       # number of demand (read+write) misses
system.l2.demand_misses::total                1488099                       # number of demand (read+write) misses
system.l2.overall_misses::.cpu.inst               497                       # number of overall misses
system.l2.overall_misses::.cpu.data           1487602                       # number of overall misses
system.l2.overall_misses::total               1488099                       # number of overall misses
system.l2.demand_miss_latency::.cpu.inst     37178000                       # number of demand (read+write) miss cycles
system.l2.demand_miss_latency::.cpu.data 119342841000                       # number of demand (read+write) miss cycles
system.l2.demand_miss_latency::total     119380019000                       # number of demand (read+write) miss cycles
system.l2.overall_miss_latency::.cpu.inst     37178000                       # number of overall miss cycles
system.l2.overall_miss_latency::.cpu.data 119342841000                       # number of overall miss cycles
system.l2.overall_miss_latency::total    119380019000                       # number of overall miss cycles
system.l2.demand_accesses::.cpu.inst              569                       # number of demand (read+write) accesses
system.l2.demand_accesses::.cpu.data          1542844                       # number of demand (read+write) accesses
system.l2.demand_accesses::total              1543413                       # number of demand (read+write) accesses
system.l2.overall_accesses::.cpu.inst             569                       # number of overall (read+write) accesses
system.l2.overall_accesses::.cpu.data         1542844                       # number of overall (read+write) accesses
system.l2.overall_accesses::total             1543413                       # number of overall (read+write) accesses
system.l2.demand_miss_rate::.cpu.inst        0.873462                       # miss rate for demand accesses
system.l2.demand_miss_rate::.cpu.data        0.964195                       # miss rate for demand accesses
system.l2.demand_miss_rate::total            0.964161                       # miss rate for demand accesses
system.l2.overall_miss_rate::.cpu.inst       0.873462                       # miss rate for overall accesses
system.l2.overall_miss_rate::.cpu.data       0.964195                       # miss rate for overall accesses
system.l2.overall_miss_rate::total           0.964161                       # miss rate for overall accesses
system.l2.demand_avg_miss_latency::.cpu.inst 74804.828974                       # average overall miss latency
system.l2.demand_avg_miss_latency::.cpu.data 80224.980203                       # average overall miss latency
system.l2.demand_avg_miss_latency::total 80223.169964                       # average overall miss latency
system.l2.overall_avg_miss_latency::.cpu.inst 74804.828974                       # average overall miss latency
system.l2.overall_avg_miss_latency::.cpu.data 80224.980203                       # average overall miss latency
system.l2.overall_avg_miss_latency::total 80223.169964                       # average overall miss latency
system.l2.blocked_cycles::no_mshrs                  0                       # number of cycles access was blocked
system.l2.blocked_cycles::no_targets                0                       # number of cycles access was blocked
system.l2.blocked::no_mshrs                         0                       # number of cycles access was blocked
system.l2.blocked::no_targets                       0                       # number of cycles access was blocked
system.l2.avg_blocked_cycles::no_mshrs            nan                       # average number of cycles each access was blocked
system.l2.avg_blocked_cycles::no_targets          nan                       # average number of cycles each access was blocked
system.l2.writebacks::.writebacks             1479321                       # number of writebacks
system.l2.writebacks::total                   1479321                       # number of writebacks
system.l2.demand_mshr_hits::.cpu.inst               2                       # number of demand (read+write) MSHR hits
system.l2.demand_mshr_hits::.cpu.data               1                       # number of demand (read+write) MSHR hits
system.l2.demand_mshr_hits::total                   3                       # number of demand (read+write) MSHR hits
system.l2.overall_mshr_hits::.cpu.inst              2                       # number of overall MSHR hits
system.l2.overall_mshr_hits::.cpu.data              1                       # number of overall MSHR hits
system.l2.overall_mshr_hits::total                  3                       # number of overall MSHR hits
system.l2.demand_mshr_misses::.cpu.inst           495                       # number of demand (read+write) MSHR misses
system.l2.demand_mshr_misses::.cpu.data       1487601                       # number of demand (read+write) MSHR misses
system.l2.demand_mshr_misses::total           1488096                       # number of demand (read+write) MSHR misses
system.l2.overall_mshr_misses::.cpu.inst          495                       # number of overall MSHR misses
system.l2.overall_mshr_misses::.cpu.data      1487601                       # number of overall MSHR misses
system.l2.overall_mshr_misses::total          1488096                       # number of overall MSHR misses
system.l2.demand_mshr_miss_latency::.cpu.inst     32095000                       # number of demand (read+write) MSHR miss cycles
system.l2.demand_mshr_miss_latency::.cpu.data 104466770000                       # number of demand (read+write) MSHR miss cycles
system.l2.demand_mshr_miss_latency::total 104498865000                       # number of demand (read+write) MSHR miss cycles
system.l2.overall_mshr_miss_latency::.cpu.inst     32095000                       # number of overall MSHR miss cycles
system.l2.overall_mshr_miss_latency::.cpu.data 104466770000                       # number of overall MSHR miss cycles
system.l2.overall_mshr_miss_latency::total 104498865000                       # number of overall MSHR miss cycles
system.l2.demand_mshr_miss_rate::.cpu.inst     0.869947                       # mshr miss rate for demand accesses
system.l2.demand_mshr_miss_rate::.cpu.data     0.964194                       # mshr miss rate for demand accesses
system.l2.demand_mshr_miss_rate::total       0.964159                       # mshr miss rate for demand accesses
system.l2.overall_mshr_miss_rate::.cpu.inst     0.869947                       # mshr miss rate for overall accesses
system.l2.overall_mshr_miss_rate::.cpu.data     0.964194                       # mshr miss rate for overall accesses
system.l2.overall_mshr_miss_rate::total      0.964159                       # mshr miss rate for overall accesses
system.l2.demand_avg_mshr_miss_latency::.cpu.inst 64838.383838                       # average overall mshr miss latency
system.l2.demand_avg_mshr_miss_latency::.cpu.data 70224.993127                       # average overall mshr miss latency
system.l2.demand_avg_mshr_miss_latency::total 70223.201326                       # average overall mshr miss latency
system.l2.overall_avg_mshr_miss_latency::.cpu.inst 64838.383838                       # average overall mshr miss latency
system.l2.overall_avg_mshr_miss_latency::.cpu.data 70224.993127                       # average overall mshr miss latency
system.l2.overall_avg_mshr_miss_latency::total 70223.201326                       # average overall mshr miss latency
system.l2.replacements                        1479904                       # number of replacements
system.l2.WritebackDirty_hits::.writebacks      1530596                       # number of WritebackDirty hits
system.l2.WritebackDirty_hits::total          1530596                       # number of WritebackDirty hits
system.l2.WritebackDirty_accesses::.writebacks      1530596                       # number of WritebackDirty accesses(hits+misses)
system.l2.WritebackDirty_accesses::total      1530596                       # number of WritebackDirty accesses(hits+misses)
system.l2.WritebackClean_hits::.writebacks          158                       # number of WritebackClean hits
system.l2.WritebackClean_hits::total              158                       # number of WritebackClean hits
system.l2.WritebackClean_accesses::.writebacks          158                       # number of WritebackClean accesses(hits+misses)
system.l2.WritebackClean_accesses::total          158                       # number of WritebackClean accesses(hits+misses)
system.l2.ReadExReq_hits::.cpu.data             23822                       # number of ReadExReq hits
system.l2.ReadExReq_hits::total                 23822                       # number of ReadExReq hits
system.l2.ReadExReq_misses::.cpu.data         1487496                       # number of ReadExReq misses
system.l2.ReadExReq_misses::total             1487496                       # number of ReadExReq misses
system.l2.ReadExReq_miss_latency::.cpu.data 119334252500                       # number of ReadExReq miss cycles
system.l2.ReadExReq_miss_latency::total  119334252500                       # number of ReadExReq miss cycles
system.l2.ReadExReq_accesses::.cpu.data       1511318                       # number of ReadExReq accesses(hits+misses)
system.l2.ReadExReq_accesses::total           1511318                       # number of ReadExReq accesses(hits+misses)
system.l2.ReadExReq_miss_rate::.cpu.data     0.984238                       # miss rate for ReadExReq accesses
system.l2.ReadExReq_miss_rate::total         0.984238                       # miss rate for ReadExReq accesses
system.l2.ReadExReq_avg_miss_latency::.cpu.data 80224.923294                       # average ReadExReq miss latency
system.l2.ReadExReq_avg_miss_latency::total 80224.923294                       # average ReadExReq miss latency
system.l2.ReadExReq_mshr_misses::.cpu.data      1487496                       # number of ReadExReq MSHR misses
system.l2.ReadExReq_mshr_misses::total        1487496                       # number of ReadExReq MSHR misses
system.l2.ReadExReq_mshr_miss_latency::.cpu.data 104459292500                       # number of ReadExReq MSHR miss cycles
system.l2.ReadExReq_mshr_miss_latency::total 104459292500                       # number of ReadExReq MSHR miss cycles
system.l2.ReadExReq_mshr_miss_rate::.cpu.data     0.984238                       # mshr miss rate for ReadExReq accesses
system.l2.ReadExReq_mshr_miss_rate::total     0.984238                       # mshr miss rate for ReadExReq accesses
system.l2.ReadExReq_avg_mshr_miss_latency::.cpu.data 70224.923294                       # average ReadExReq mshr miss latency
system.l2.ReadExReq_avg_mshr_miss_latency::total 70224.923294                       # average ReadExReq mshr miss latency
system.l2.ReadCleanReq_hits::.cpu.inst             72                       # number of ReadCleanReq hits
system.l2.ReadCleanReq_hits::total                 72                       # number of ReadCleanReq hits
system.l2.ReadCleanReq_misses::.cpu.inst          497                       # number of ReadCleanReq misses
system.l2.ReadCleanReq_misses::total              497                       # number of ReadCleanReq misses
system.l2.ReadCleanReq_miss_latency::.cpu.inst     37178000                       # number of ReadCleanReq miss cycles
system.l2.ReadCleanReq_miss_latency::total     37178000                       # number of ReadCleanReq miss cycles
system.l2.ReadCleanReq_accesses::.cpu.inst          569                       # number of ReadCleanReq accesses(hits+misses)
system.l2.ReadCleanReq_accesses::total            569                       # number of ReadCleanReq accesses(hits+misses)
system.l2.ReadCleanReq_miss_rate::.cpu.inst     0.873462                       # miss rate for ReadCleanReq accesses
system.l2.ReadCleanReq_miss_rate::total      0.873462                       # miss rate for ReadCleanReq accesses
system.l2.ReadCleanReq_avg_miss_latency::.cpu.inst 74804.828974                       # average ReadCleanReq miss latency
system.l2.ReadCleanReq_avg_miss_latency::total 74804.828974                       # average ReadCleanReq miss latency
system.l2.ReadCleanReq_mshr_hits::.cpu.inst            2                       # number of ReadCleanReq MSHR hits
system.l2.ReadCleanReq_mshr_hits::total             2                       # number of ReadCleanReq MSHR hits
system.l2.ReadCleanReq_mshr_misses::.cpu.inst          495                       # number of ReadCleanReq MSHR misses
system.l2.ReadCleanReq_mshr_misses::total          495                       # number of ReadCleanReq MSHR misses
system.l2.ReadCleanReq_mshr_miss_latency::.cpu.inst     32095000                       # number of ReadCleanReq MSHR miss cycles
system.l2.ReadCleanReq_mshr_miss_latency::total     32095000                       # number of ReadCleanReq MSHR miss cycles
system.l2.ReadCleanReq_mshr_miss_rate::.cpu.inst     0.869947                       # mshr miss rate for ReadCleanReq accesses
system.l2.ReadCleanReq_mshr_miss_rate::total     0.869947                       # mshr miss rate for ReadCleanReq accesses
system.l2.ReadCleanReq_avg_mshr_miss_latency::.cpu.inst 64838.383838                       # average ReadCleanReq mshr miss latency
system.l2.ReadCleanReq_avg_mshr_miss_latency::total 64838.383838                       # average ReadCleanReq mshr miss latency
system.l2.ReadSharedReq_hits::.cpu.data         31420                       # number of ReadSharedReq hits
system.l2.ReadSharedReq_hits::total             31420                       # number of ReadSharedReq hits
system.l2.ReadSharedReq_misses::.cpu.data          106                       # number of ReadSharedReq misses
system.l2.ReadSharedReq_misses::total             106                       # number of ReadSharedReq misses
system.l2.ReadSharedReq_miss_latency::.cpu.data      8588500                       # number of ReadSharedReq miss cycles
system.l2.ReadSharedReq_miss_latency::total      8588500                       # number of ReadSharedReq miss cycles
system.l2.ReadSharedReq_accesses::.cpu.data        31526                       # number of ReadSharedReq accesses(hits+misses)
system.l2.ReadSharedReq_accesses::total         31526                       # number of ReadSharedReq accesses(hits+misses)
system.l2.ReadSharedReq_miss_rate::.cpu.data     0.003362                       # miss rate for ReadSharedReq accesses
system.l2.ReadSharedReq_miss_rate::total     0.003362                       # miss rate for ReadSharedReq accesses
system.l2.ReadSharedReq_avg_miss_latency::.cpu.data 81023.584906                       # average ReadSharedReq miss latency
system.l2.ReadSharedReq_avg_miss_latency::total 81023.584906                       # average ReadSharedReq miss latency
system.l2.ReadSharedReq_mshr_hits::.cpu.data            1                       # number of ReadSharedReq MSHR hits
system.l2.ReadSharedReq_mshr_hits::total            1                       # number of ReadSharedReq MSHR hits
system.l2.ReadSharedReq_mshr_misses::.cpu.data          105                       # number of ReadSharedReq MSHR misses
system.l2.ReadSharedReq_mshr_misses::total          105                       # number of ReadSharedReq MSHR misses
system.l2.ReadSharedReq_mshr_miss_latency::.cpu.data      7477500                       # number of ReadSharedReq MSHR miss cycles
system.l2.ReadSharedReq_mshr_miss_latency::total      7477500                       # number of ReadSharedReq MSHR miss cycles
system.l2.ReadSharedReq_mshr_miss_rate::.cpu.data     0.003331                       # mshr miss rate for ReadSharedReq accesses
system.l2.ReadSharedReq_mshr_miss_rate::total     0.003331                       # mshr miss rate for ReadSharedReq accesses
system.l2.ReadSharedReq_avg_mshr_miss_latency::.cpu.data 71214.285714                       # average ReadSharedReq mshr miss latency
system.l2.ReadSharedReq_avg_mshr_miss_latency::total 71214.285714                       # average ReadSharedReq mshr miss latency
system.l2.power_state.pwrStateResidencyTicks::UNDEFINED 176446097000                       # Cumulative time (in ticks) in various power states
system.l2.tags.tagsinuse                  8170.927170                       # Cycle average of tags in use
system.l2.tags.total_refs                     3074259                       # Total number of references to valid blocks.
system.l2.tags.sampled_refs                   1488096                       # Sample count of references to valid blocks.
system.l2.tags.avg_refs                      2.065901                       # Average number of references to valid blocks.
system.l2.tags.warmup_cycle                     77000                       # Cycle when the warmup percentage was hit.
system.l2.tags.occ_blocks::.cpu.inst         3.151957                       # Average occupied blocks per requestor
system.l2.tags.occ_blocks::.cpu.data      8167.775213                       # Average occupied blocks per requestor
system.l2.tags.occ_percent::.cpu.inst        0.000385                       # Average percentage of cache occupancy
system.l2.tags.occ_percent::.cpu.data        0.997043                       # Average percentage of cache occupancy
system.l2.tags.occ_percent::total            0.997428                       # Average percentage of cache occupancy
system.l2.tags.occ_task_id_blocks::1024          8192                       # Occupied blocks per task id
system.l2.tags.age_task_id_blocks_1024::0           83                       # Occupied blocks per task id
system.l2.tags.age_task_id_blocks_1024::1          760                       # Occupied blocks per task id
system.l2.tags.age_task_id_blocks_1024::2         7346                       # Occupied blocks per task id
system.l2.tags.age_task_id_blocks_1024::4            3                       # Occupied blocks per task id
system.l2.tags.occ_task_id_percent::1024            1                       # Percentage of cache occupancy per task id
system.l2.tags.tag_accesses                   7636620                       # Number of tag accesses
system.l2.tags.data_accesses                  7636620                       # Number of data accesses
system.l2.tags.power_state.pwrStateResidencyTicks::UNDEFINED 176446097000                       # Cumulative time (in ticks) in various power states
system.mem_ctrls.avgPriority_.writebacks::samples   1479321.00                       # Average QoS priority value for accepted requests
system.mem_ctrls.avgPriority_.cpu.inst::samples       495.00                       # Average QoS priority value for accepted requests
system.mem_ctrls.avgPriority_.cpu.data::samples   1487601.00                       # Average QoS priority value for accepted requests
system.mem_ctrls.priorityMinLatency      0.000000018750                       # per QoS priority minimum request to response latency (s)
system.mem_ctrls.priorityMaxLatency      0.000439504500                       # per QoS priority maximum request to response latency (s)
system.mem_ctrls.numReadWriteTurnArounds        92453                       # Number of turnarounds from READ to WRITE
system.mem_ctrls.numWriteReadTurnArounds        92453                       # Number of turnarounds from WRITE to READ
system.mem_ctrls.numStayReadState             4406902                       # Number of times bus staying in READ state
system.mem_ctrls.numStayWriteState            1389049                       # Number of times bus staying in WRITE state
system.mem_ctrls.readReqs                     1488096                       # Number of read requests accepted
system.mem_ctrls.writeReqs                    1479321                       # Number of write requests accepted
system.mem_ctrls.readBursts                   1488096                       # Number of controller read bursts, including those serviced by the write queue
system.mem_ctrls.writeBursts                  1479321                       # Number of controller write bursts, including those merged in the write queue
system.mem_ctrls.servicedByWrQ                      0                       # Number of controller read bursts serviced by the write queue
system.mem_ctrls.mergedWrBursts                     0                       # Number of controller write bursts merged with an existing one
system.mem_ctrls.neitherReadNorWriteReqs            0                       # Number of requests that are neither read nor write
system.mem_ctrls.avgRdQLen                       1.00                       # Average read queue length when enqueuing
system.mem_ctrls.avgWrQLen                      25.79                       # Average write queue length when enqueuing
system.mem_ctrls.numRdRetry                         0                       # Number of times read queue was full causing retry
system.mem_ctrls.numWrRetry                         0                       # Number of times write queue was full causing retry
system.mem_ctrls.readPktSize::0                     0                       # Read request sizes (log2)
system.mem_ctrls.readPktSize::1                     0                       # Read request sizes (log2)
system.mem_ctrls.readPktSize::2                     0                       # Read request sizes (log2)
system.mem_ctrls.readPktSize::3                     0                       # Read request sizes (log2)
system.mem_ctrls.readPktSize::4                     0                       # Read request sizes (log2)
system.mem_ctrls.readPktSize::5                     0                       # Read request sizes (log2)
system.mem_ctrls.readPktSize::6               1488096                       # Read request sizes (log2)
system.mem_ctrls.writePktSize::0                    0                       # Write request sizes (log2)
system.mem_ctrls.writePktSize::1                    0                       # Write request sizes (log2)
system.mem_ctrls.writePktSize::2                    0                       # Write request sizes (log2)
[...]
system.mem_ctrls.dram.bw_write::.writebacks    536574884                       # Write bandwidth from this memory (bytes/s)
system.mem_ctrls.dram.bw_write::total       536574884                       # Write bandwidth from this memory (bytes/s)
system.mem_ctrls.dram.bw_total::.writebacks    536574884                       # Total bandwidth to/from this memory (bytes/s)
system.mem_ctrls.dram.bw_total::.cpu.inst       179545                       # Total bandwidth to/from this memory (bytes/s)
system.mem_ctrls.dram.bw_total::.cpu.data    539578181                       # Total bandwidth to/from this memory (bytes/s)
system.mem_ctrls.dram.bw_total::total      1076332609                       # Total bandwidth to/from this memory (bytes/s)
system.mem_ctrls.dram.readBursts              1488096                       # Number of DRAM read bursts
system.mem_ctrls.dram.writeBursts             1479295                       # Number of DRAM write bursts
system.mem_ctrls.dram.perBankRdBursts::0        92997                       # Per bank write bursts
system.mem_ctrls.dram.perBankRdBursts::1        92977                       # Per bank write bursts
system.mem_ctrls.dram.perBankRdBursts::2        93052                       # Per bank write bursts
system.mem_ctrls.dram.perBankRdBursts::3        93023                       # Per bank write bursts
system.mem_ctrls.dram.perBankRdBursts::4        93097                       # Per bank write bursts
system.mem_ctrls.dram.perBankRdBursts::5        93064                       # Per bank write bursts
system.mem_ctrls.dram.perBankRdBursts::6        93082                       # Per bank write bursts
system.mem_ctrls.dram.perBankRdBursts::7        93068                       # Per bank write bursts
system.mem_ctrls.dram.perBankRdBursts::8        92999                       # Per bank write bursts
system.mem_ctrls.dram.perBankRdBursts::9        92948                       # Per bank write bursts
system.mem_ctrls.dram.perBankRdBursts::10        92965                       # Per bank write bursts
system.mem_ctrls.dram.perBankRdBursts::11        92952                       # Per bank write bursts
system.mem_ctrls.dram.perBankRdBursts::12        93013                       # Per bank write bursts
system.mem_ctrls.dram.perBankRdBursts::13        92931                       # Per bank write bursts
system.mem_ctrls.dram.perBankRdBursts::14        92945                       # Per bank write bursts
system.mem_ctrls.dram.perBankRdBursts::15        92983                       # Per bank write bursts
system.mem_ctrls.dram.perBankWrBursts::0        92441                       # Per bank write bursts
system.mem_ctrls.dram.perBankWrBursts::1        92431                       # Per bank write bursts
system.mem_ctrls.dram.perBankWrBursts::2        92421                       # Per bank write bursts
system.mem_ctrls.dram.perBankWrBursts::3        92481                       # Per bank write bursts
system.mem_ctrls.dram.perBankWrBursts::4        92544                       # Per bank write bursts
system.mem_ctrls.dram.perBankWrBursts::5        92544                       # Per bank write bursts
system.mem_ctrls.dram.perBankWrBursts::6        92544                       # Per bank write bursts
system.mem_ctrls.dram.perBankWrBursts::7        92519                       # Per bank write bursts
system.mem_ctrls.dram.perBankWrBursts::8        92416                       # Per bank write bursts
system.mem_ctrls.dram.perBankWrBursts::9        92416                       # Per bank write bursts
system.mem_ctrls.dram.perBankWrBursts::10        92416                       # Per bank write bursts
system.mem_ctrls.dram.perBankWrBursts::11        92416                       # Per bank write bursts
system.mem_ctrls.dram.perBankWrBursts::12        92416                       # Per bank write bursts
system.mem_ctrls.dram.perBankWrBursts::13        92416                       # Per bank write bursts
system.mem_ctrls.dram.perBankWrBursts::14        92419                       # Per bank write bursts
system.mem_ctrls.dram.perBankWrBursts::15        92455                       # Per bank write bursts
system.mem_ctrls.dram.totQLat             15335129250                       # Total ticks spent queuing
system.mem_ctrls.dram.totBusLat            7440480000                       # Total ticks spent in databus transfers
system.mem_ctrls.dram.totMemAccLat        43236929250                       # Total ticks spent from burst creation until serviced by the DRAM
system.mem_ctrls.dram.avgQLat                10305.20                       # Average queueing delay per DRAM burst
system.mem_ctrls.dram.avgBusLat               5000.00                       # Average bus latency per DRAM burst
system.mem_ctrls.dram.avgMemAccLat           29055.20                       # Average memory access latency per DRAM burst
system.mem_ctrls.dram.readRowHits             1363027                       # Number of row buffer hits during reads
system.mem_ctrls.dram.writeRowHits            1373810                       # Number of row buffer hits during writes
system.mem_ctrls.dram.readRowHitRate            91.60                       # Row buffer hit rate for reads
system.mem_ctrls.dram.writeRowHitRate           92.87                       # Row buffer hit rate for writes
system.mem_ctrls.dram.bytesPerActivate::samples       230552                       # Bytes accessed per row activation
system.mem_ctrls.dram.bytesPerActivate::mean   823.729345                       # Bytes accessed per row activation
system.mem_ctrls.dram.bytesPerActivate::gmean   733.772187                       # Bytes accessed per row activation
system.mem_ctrls.dram.bytesPerActivate::stdev   289.140388                       # Bytes accessed per row activation
system.mem_ctrls.dram.bytesPerActivate::0-127         6188      2.68%      2.68% # Bytes accessed per row activation
system.mem_ctrls.dram.bytesPerActivate::128-255         6254      2.71%      5.40% # Bytes accessed per row activation
system.mem_ctrls.dram.bytesPerActivate::256-383         6134      2.66%      8.06% # Bytes accessed per row activation
system.mem_ctrls.dram.bytesPerActivate::384-511        17920      7.77%     15.83% # Bytes accessed per row activation
system.mem_ctrls.dram.bytesPerActivate::512-639        34566     14.99%     30.82% # Bytes accessed per row activation
system.mem_ctrls.dram.bytesPerActivate::640-767         4777      2.07%     32.89% # Bytes accessed per row activation
system.mem_ctrls.dram.bytesPerActivate::768-895         6122      2.66%     35.55% # Bytes accessed per row activation
system.mem_ctrls.dram.bytesPerActivate::896-1023         5257      2.28%     37.83% # Bytes accessed per row activation
system.mem_ctrls.dram.bytesPerActivate::1024-1151       143334     62.17%    100.00% # Bytes accessed per row activation
system.mem_ctrls.dram.bytesPerActivate::total       230552                       # Bytes accessed per row activation
system.mem_ctrls.dram.bytesRead              95238144                       # Total number of bytes read from DRAM
system.mem_ctrls.dram.bytesWritten           94674880                       # Total number of bytes written to DRAM
system.mem_ctrls.dram.avgRdBW              539.757726                       # Average DRAM read bandwidth in MiBytes/s
system.mem_ctrls.dram.avgWrBW              536.565453                       # Average DRAM write bandwidth in MiBytes/s
system.mem_ctrls.dram.peakBW                 12800.00                       # Theoretical peak bandwidth in MiByte/s
system.mem_ctrls.dram.busUtil                    8.41                       # Data bus utilization in percentage
system.mem_ctrls.dram.busUtilRead                4.22                       # Data bus utilization in percentage for reads
system.mem_ctrls.dram.busUtilWrite               4.19                       # Data bus utilization in percentage for writes
system.mem_ctrls.dram.pageHitRate               92.23                       # Row buffer hit rate, read and write combined
system.mem_ctrls.dram.power_state.pwrStateResidencyTicks::UNDEFINED 176446097000                       # Cumulative time (in ticks) in various power states
system.mem_ctrls.dram.rank0.actEnergy       825719580                       # Energy for activate commands per rank (pJ)
system.mem_ctrls.dram.rank0.preEnergy       438876570                       # Energy for precharge commands per rank (pJ)
system.mem_ctrls.dram.rank0.readEnergy     5314730400                       # Energy for read commands per rank (pJ)
system.mem_ctrls.dram.rank0.writeEnergy    3862408500                       # Energy for write commands per rank (pJ)
system.mem_ctrls.dram.rank0.refreshEnergy 13928357040.000002                       # Energy for refresh commands per rank (pJ)
system.mem_ctrls.dram.rank0.actBackEnergy  41864380170                       # Energy for active background per rank (pJ)
system.mem_ctrls.dram.rank0.preBackEnergy  32501086560                       # Energy for precharge background per rank (pJ)
system.mem_ctrls.dram.rank0.actPowerDownEnergy            0                       # Energy for active power-down per rank (pJ)
system.mem_ctrls.dram.rank0.prePowerDownEnergy            0                       # Energy for precharge power-down per rank (pJ)
system.mem_ctrls.dram.rank0.selfRefreshEnergy            0                       # Energy for self refresh per rank (pJ)
system.mem_ctrls.dram.rank0.totalEnergy   98735558820                       # Total energy per rank (pJ)
system.mem_ctrls.dram.rank0.averagePower   559.579160                       # Core power per rank (mW)
system.mem_ctrls.dram.rank0.totalIdleTime            0                       # Total Idle time Per DRAM Rank
system.mem_ctrls.dram.rank0.pwrStateTime::IDLE  83288370500                       # Time in different power states
system.mem_ctrls.dram.rank0.pwrStateTime::REF   5891860000                       # Time in different power states
system.mem_ctrls.dram.rank0.pwrStateTime::SREF            0                       # Time in different power states
system.mem_ctrls.dram.rank0.pwrStateTime::PRE_PDN            0                       # Time in different power states
system.mem_ctrls.dram.rank0.pwrStateTime::ACT  87265866500                       # Time in different power states
system.mem_ctrls.dram.rank0.pwrStateTime::ACT_PDN            0                       # Time in different power states
system.mem_ctrls.dram.rank1.actEnergy       820435980                       # Energy for activate commands per rank (pJ)
system.mem_ctrls.dram.rank1.preEnergy       436068270                       # Energy for precharge commands per rank (pJ)
system.mem_ctrls.dram.rank1.readEnergy     5310275040                       # Energy for read commands per rank (pJ)
system.mem_ctrls.dram.rank1.writeEnergy    3859511400                       # Energy for write commands per rank (pJ)
system.mem_ctrls.dram.rank1.refreshEnergy 13928357040.000002                       # Energy for refresh commands per rank (pJ)
system.mem_ctrls.dram.rank1.actBackEnergy  41839665540                       # Energy for active background per rank (pJ)
system.mem_ctrls.dram.rank1.preBackEnergy  32521898880                       # Energy for precharge background per rank (pJ)
system.mem_ctrls.dram.rank1.actPowerDownEnergy            0                       # Energy for active power-down per rank (pJ)
system.mem_ctrls.dram.rank1.prePowerDownEnergy            0                       # Energy for precharge power-down per rank (pJ)
system.mem_ctrls.dram.rank1.selfRefreshEnergy            0                       # Energy for self refresh per rank (pJ)
system.mem_ctrls.dram.rank1.totalEnergy   98716212150                       # Total energy per rank (pJ)
system.mem_ctrls.dram.rank1.averagePower   559.469514                       # Core power per rank (mW)
system.mem_ctrls.dram.rank1.totalIdleTime            0                       # Total Idle time Per DRAM Rank
system.mem_ctrls.dram.rank1.pwrStateTime::IDLE  83349603250                       # Time in different power states
system.mem_ctrls.dram.rank1.pwrStateTime::REF   5891860000                       # Time in different power states
system.mem_ctrls.dram.rank1.pwrStateTime::SREF            0                       # Time in different power states
system.mem_ctrls.dram.rank1.pwrStateTime::PRE_PDN            0                       # Time in different power states
system.mem_ctrls.dram.rank1.pwrStateTime::ACT  87204633750                       # Time in different power states
system.mem_ctrls.dram.rank1.pwrStateTime::ACT_PDN            0                       # Time in different power states
system.mem_ctrls.power_state.pwrStateResidencyTicks::UNDEFINED 176446097000                       # Cumulative time (in ticks) in various power states
system.membus.trans_dist::ReadResp                600                       # Transaction distribution
system.membus.trans_dist::WritebackDirty      1479321                       # Transaction distribution
system.membus.trans_dist::CleanEvict              187                       # Transaction distribution
system.membus.trans_dist::ReadExReq           1487496                       # Transaction distribution
system.membus.trans_dist::ReadExResp          1487496                       # Transaction distribution
system.membus.trans_dist::ReadSharedReq           600                       # Transaction distribution
system.membus.pkt_count_system.l2.mem_side_port::system.mem_ctrls.port      4455700                       # Packet count per connected requestor and responder (bytes)
system.membus.pkt_count::total                4455700                       # Packet count per connected requestor and responder (bytes)
system.membus.pkt_size_system.l2.mem_side_port::system.mem_ctrls.port    189914688                       # Cumulative packet size per connected requestor and responder (bytes)
system.membus.pkt_size::total               189914688                       # Cumulative packet size per connected requestor and responder (bytes)
system.membus.snoops                                0                       # Total snoops (count)
system.membus.snoopTraffic                          0                       # Total snoop traffic (bytes)
system.membus.snoop_fanout::samples           1488096                       # Request fanout histogram
system.membus.snoop_fanout::mean                    0                       # Request fanout histogram
system.membus.snoop_fanout::stdev                   0                       # Request fanout histogram
system.membus.snoop_fanout::underflows              0      0.00%      0.00% # Request fanout histogram
system.membus.snoop_fanout::0                 1488096    100.00%    100.00% # Request fanout histogram
system.membus.snoop_fanout::1                       0      0.00%    100.00% # Request fanout histogram
system.membus.snoop_fanout::overflows               0      0.00%    100.00% # Request fanout histogram
system.membus.snoop_fanout::min_value               0                       # Request fanout histogram
system.membus.snoop_fanout::max_value               0                       # Request fanout histogram
system.membus.snoop_fanout::total             1488096                       # Request fanout histogram
system.membus.power_state.pwrStateResidencyTicks::UNDEFINED 176446097000                       # Cumulative time (in ticks) in various power states
system.membus.reqLayer0.occupancy          9476179500                       # Layer occupancy (ticks)
system.membus.reqLayer0.utilization               5.4                       # Layer utilization (%)
system.membus.respLayer1.occupancy         7843216250                       # Layer occupancy (ticks)
system.membus.respLayer1.utilization              4.4                       # Layer utilization (%)
system.tol2bus.trans_dist::ReadResp             32095                       # Transaction distribution
system.tol2bus.trans_dist::WritebackDirty      3009917                       # Transaction distribution
system.tol2bus.trans_dist::WritebackClean          172                       # Transaction distribution
system.tol2bus.trans_dist::CleanEvict           12319                       # Transaction distribution
system.tol2bus.trans_dist::ReadExReq          1511318                       # Transaction distribution
system.tol2bus.trans_dist::ReadExResp         1511318                       # Transaction distribution
system.tol2bus.trans_dist::ReadCleanReq           569                       # Transaction distribution
system.tol2bus.trans_dist::ReadSharedReq        31526                       # Transaction distribution
system.tol2bus.pkt_count_system.cpu.icache.mem_side_port::system.l2.cpu_side_port         1310                       # Packet count per connected requestor and responder (bytes)
system.tol2bus.pkt_count_system.cpu.dcache.mem_side_port::system.l2.cpu_side_port      4628020                       # Packet count per connected requestor and responder (bytes)
system.tol2bus.pkt_count::total               4629330                       # Packet count per connected requestor and responder (bytes)
system.tol2bus.pkt_size_system.cpu.icache.mem_side_port::system.l2.cpu_side_port        47424                       # Cumulative packet size per connected requestor and responder (bytes)
system.tol2bus.pkt_size_system.cpu.dcache.mem_side_port::system.l2.cpu_side_port    196700160                       # Cumulative packet size per connected requestor and responder (bytes)
system.tol2bus.pkt_size::total              196747584                       # Cumulative packet size per connected requestor and responder (bytes)
system.tol2bus.snoops                         1479904                       # Total snoops (count)
system.tol2bus.snoopTraffic                  94676544                       # Total snoop traffic (bytes)
system.tol2bus.snoop_fanout::samples          3023317                       # Request fanout histogram
system.tol2bus.snoop_fanout::mean            0.003986                       # Request fanout histogram
system.tol2bus.snoop_fanout::stdev           0.063012                       # Request fanout histogram
system.tol2bus.snoop_fanout::underflows             0      0.00%      0.00% # Request fanout histogram
system.tol2bus.snoop_fanout::0                3011265     99.60%     99.60% # Request fanout histogram
system.tol2bus.snoop_fanout::1                  12052      0.40%    100.00% # Request fanout histogram
system.tol2bus.snoop_fanout::2                      0      0.00%    100.00% # Request fanout histogram
system.tol2bus.snoop_fanout::overflows              0      0.00%    100.00% # Request fanout histogram
system.tol2bus.snoop_fanout::min_value              0                       # Request fanout histogram
system.tol2bus.snoop_fanout::max_value              1                       # Request fanout histogram
system.tol2bus.snoop_fanout::total            3023317                       # Request fanout histogram
system.tol2bus.power_state.pwrStateResidencyTicks::UNDEFINED 176446097000                       # Cumulative time (in ticks) in various power states
system.tol2bus.reqLayer0.occupancy         3073726500                       # Layer occupancy (ticks)
system.tol2bus.reqLayer0.utilization              1.7                       # Layer utilization (%)
system.tol2bus.respLayer0.occupancy            854498                       # Layer occupancy (ticks)
system.tol2bus.respLayer0.utilization             0.0                       # Layer utilization (%)
system.tol2bus.respLayer1.occupancy        2314266499                       # Layer occupancy (ticks)
system.tol2bus.respLayer1.utilization             1.3                       # Layer utilization (%)
system.voltage_domain.voltage                       1                       # Voltage in Volts

---------- End Simulation Statistics   ----------
